Stray ".ends" card: .ends
Circuit: * C:\LTspiceXVII\my_PLL1.asc

Limiting rise time of source v1 to 2e-007
Limiting fall time of source v1 to 2e-007
WARNING: Node N002 is floating.
WARNING: Node N004 is floating.
WARNING: Node N005 is floating.
WARNING: Node N006 is floating.
WARNING: Node N010 is floating.
WARNING: Node N012 is floating.
WARNING: Node N013 is floating.
WARNING: Node N014 is floating.
WARNING: Node N023 is floating.
WARNING: Node N024 is floating.
WARNING: Node N025 is floating.
WARNING: Node N026 is floating.
WARNING: Node N027 is floating.
WARNING: Node N038 is floating.
WARNING: Node N039 is floating.
WARNING: Node N040 is floating.
WARNING: Node N011 is floating.
WARNING: Node N003 is floating.
WARNING: Node N037 is floating.
WARNING: Node N021 is floating.
WARNING: Node N020 is floating.
WARNING: Node N022 is floating.
WARNING: Node N035 is floating.
WARNING: Node N034 is floating.
WARNING: Node N036 is floating.

Instance "m24": Length shorter than recommended for a level 1 MOSFET.
Instance "m24": Width narrower than recommended for a level 1 MOSFET.
Instance "m23": Length shorter than recommended for a level 1 MOSFET.
Instance "m23": Width narrower than recommended for a level 1 MOSFET.
Instance "m22": Length shorter than recommended for a level 1 MOSFET.
Instance "m22": Width narrower than recommended for a level 1 MOSFET.
Instance "m18": Length shorter than recommended for a level 1 MOSFET.
Instance "m18": Width narrower than recommended for a level 1 MOSFET.
Instance "m16": Length shorter than recommended for a level 1 MOSFET.
Instance "m16": Width narrower than recommended for a level 1 MOSFET.
Instance "m15": Length shorter than recommended for a level 1 MOSFET.
Instance "m15": Width narrower than recommended for a level 1 MOSFET.
Instance "m14": Length shorter than recommended for a level 1 MOSFET.
Instance "m14": Width narrower than recommended for a level 1 MOSFET.
Instance "m13": Length shorter than recommended for a level 1 MOSFET.
Instance "m13": Width narrower than recommended for a level 1 MOSFET.
Instance "m12": Length shorter than recommended for a level 1 MOSFET.
Instance "m12": Width narrower than recommended for a level 1 MOSFET.
Instance "m11": Length shorter than recommended for a level 1 MOSFET.
Instance "m11": Width narrower than recommended for a level 1 MOSFET.
Instance "m10": Length shorter than recommended for a level 1 MOSFET.
Instance "m10": Width narrower than recommended for a level 1 MOSFET.
Instance "m9": Length shorter than recommended for a level 1 MOSFET.
Instance "m9": Width narrower than recommended for a level 1 MOSFET.
Instance "m21": Length shorter than recommended for a level 1 MOSFET.
Instance "m21": Width narrower than recommended for a level 1 MOSFET.
Instance "m20": Length shorter than recommended for a level 1 MOSFET.
Instance "m20": Width narrower than recommended for a level 1 MOSFET.
Instance "m19": Length shorter than recommended for a level 1 MOSFET.
Instance "m19": Width narrower than recommended for a level 1 MOSFET.
Instance "m17": Length shorter than recommended for a level 1 MOSFET.
Instance "m17": Width narrower than recommended for a level 1 MOSFET.
Instance "m5": Length shorter than recommended for a level 1 MOSFET.
Instance "m5": Width narrower than recommended for a level 1 MOSFET.
Instance "m8": Length shorter than recommended for a level 1 MOSFET.
Instance "m8": Width narrower than recommended for a level 1 MOSFET.
Instance "m7": Length shorter than recommended for a level 1 MOSFET.
Instance "m7": Width narrower than recommended for a level 1 MOSFET.
Instance "m6": Length shorter than recommended for a level 1 MOSFET.
Instance "m6": Width narrower than recommended for a level 1 MOSFET.
Instance "m4": Length shorter than recommended for a level 1 MOSFET.
Instance "m4": Width narrower than recommended for a level 1 MOSFET.
Instance "m3": Length shorter than recommended for a level 1 MOSFET.
Instance "m3": Width narrower than recommended for a level 1 MOSFET.
Instance "m2": Length shorter than recommended for a level 1 MOSFET.
Instance "m2": Width narrower than recommended for a level 1 MOSFET.
Instance "m1": Length shorter than recommended for a level 1 MOSFET.
Instance "m1": Width narrower than recommended for a level 1 MOSFET.
Direct Newton iteration failed to find .op point.  (Use ".option noopiter" to skip.)
Starting Gmin stepping
Gmin = 10
Gmin = 1.07374
Gmin = 0.115292
Gmin = 0.0123794
Gmin = 0.00132923
Gmin = 0.000142725
Gmin = 1.5325e-005
Gmin = 1.6455e-006
Gmin = 1.76685e-007
vernier = 0.5
vernier = 0.25
vernier = 0.125
vernier = 0.0625
vernier = 0.03125
vernier = 0.015625
vernier = 0.0078125
vernier = 0.00390625
vernier = 0.00195313
Gmin = 1.76685e-007
vernier = 0.000976563
vernier = 0.000488281
Gmin = 0
Gmin stepping failed

Starting source stepping with srcstepmethod=0
Source Step = 3.0303%
Source Step = 33.3333%
Source Step = 63.6364%
Source Step = 93.9394%
Source stepping succeeded in finding the operating point.

Heightened Def Con from 1.19563e-007 +++++++++++++++++++to 1.20688e-007
Heightened Def Con from 1.20688e-007 ++++++++++++++++to 1.20813e-007
Heightened Def Con from 1.20813e-007 ++++++++++++++++to 1.22813e-007
Heightened Def Con from 1.22813e-007 ++++++++++++++++to 1.24938e-007
Heightened Def Con from 1.24938e-007 ++++++++++++++++to 1.25063e-007
Heightened Def Con from 1.25063e-007 ++++++++++++++++to 1.25188e-007
Heightened Def Con from 1.25188e-007 ++++++++++++++++to 1.25313e-007
Heightened Def Con from 1.25313e-007 ++++++++++++++++to 1.25438e-007
Heightened Def Con from 1.25438e-007 ++++++++++++++++to 1.25563e-007
Heightened Def Con from 1.25563e-007 ++++++++++++++++to 1.25688e-007
Heightened Def Con from 1.25688e-007 ++++++++++++++++to 1.25704e-007
Heightened Def Con from 1.25704e-007 ++++++++++++++++to 1.25719e-007
Heightened Def Con from 1.25719e-007 ++++++++++++++++to 1.25735e-007
Heightened Def Con from 1.25735e-007 ++++++++++++++++to 1.2586e-007
Heightened Def Con from 1.2586e-007 ++++++++++++++++to 1.2786e-007
Heightened Def Con from 1.2786e-007 ++++++++++++++++to 1.2986e-007
Heightened Def Con from 1.2986e-007 +++++++++++++++to 1.3086e-007
Heightened Def Con from 1.3086e-007 ++++++++++++++to 1.3186e-007
Heightened Def Con from 1.3186e-007 +++++++++++++to 1.3286e-007
Heightened Def Con from 1.3286e-007 +++to 1.3386e-007
Heightened Def Con from 1.3386e-007 +++to 1.3486e-007
Heightened Def Con from 1.3486e-007 +++to 1.3586e-007
Heightened Def Con from 1.3586e-007 +++to 1.3686e-007
Heightened Def Con from 1.3686e-007 +++to 1.3786e-007
Heightened Def Con from 1.3786e-007 +++to 1.3886e-007
Heightened Def Con from 1.3886e-007 +++to 1.3986e-007
Heightened Def Con from 1.3986e-007 +++to 1.4086e-007
Heightened Def Con from 1.4086e-007 +++to 1.4186e-007
Heightened Def Con from 1.4186e-007 +++to 1.4286e-007
Heightened Def Con from 1.4286e-007 +++to 1.4386e-007
Heightened Def Con from 1.4386e-007 +++to 1.4486e-007
Heightened Def Con from 1.4486e-007 +++to 1.4586e-007
Heightened Def Con from 1.4586e-007 +++to 1.4686e-007
Heightened Def Con from 1.4686e-007 +++to 1.4786e-007
Heightened Def Con from 1.4786e-007 +++to 1.47985e-007
Heightened Def Con from 1.47985e-007 +++to 1.4811e-007
Heightened Def Con from 1.4811e-007 +++to 1.48235e-007
Heightened Def Con from 1.48235e-007 +++to 1.4836e-007
Heightened Def Con from 1.4836e-007 +++to 1.48376e-007
Heightened Def Con from 1.48376e-007 +++to 1.48391e-007
Heightened Def Con from 1.48391e-007 +++to 1.48407e-007
Heightened Def Con from 1.48407e-007 +++to 1.48422e-007
Heightened Def Con from 1.48422e-007 +++to 1.48438e-007
Heightened Def Con from 1.48438e-007 +++to 1.48454e-007
Heightened Def Con from 1.48454e-007 +++to 1.48456e-007
Heightened Def Con from 1.48456e-007 +++to 1.48471e-007
Heightened Def Con from 1.48471e-007 +++to 1.48487e-007
Heightened Def Con from 1.48487e-007 +++to 1.48502e-007
Heightened Def Con from 1.48502e-007 +++to 1.48627e-007
Heightened Def Con from 1.48627e-007 +++to 1.48752e-007
Heightened Def Con from 1.48752e-007 +++to 1.48877e-007
Heightened Def Con from 1.48877e-007 +++to 1.49002e-007
Heightened Def Con from 1.49002e-007 +++to 1.49127e-007
Heightened Def Con from 1.49127e-007 +++to 1.49252e-007
Heightened Def Con from 1.49252e-007 +++to 1.49268e-007
Heightened Def Con from 1.49268e-007 +++to 1.4927e-007
Heightened Def Con from 1.4927e-007 +++to 1.49272e-007
Heightened Def Con from 1.49272e-007 +++to 1.49272e-007
Heightened Def Con from 1.49272e-007 +++to 1.49273e-007
Heightened Def Con from 1.49273e-007 +++to 1.49273e-007
Heightened Def Con from 1.49273e-007 +++to 1.49273e-007
Heightened Def Con from 1.49273e-007 +++to 1.49273e-007
Heightened Def Con from 1.49273e-007 +++to 1.49273e-007
Heightened Def Con from 1.49273e-007 +++to 1.49273e-007
Heightened Def Con from 1.49273e-007 +++to 1.49273e-007
Heightened Def Con from 1.49273e-007 +++to 1.49273e-007
Heightened Def Con from 1.49273e-007 +++to 1.49274e-007
Heightened Def Con from 1.49274e-007 +++to 1.49274e-007
Heightened Def Con from 1.49274e-007 +++to 1.49274e-007
Heightened Def Con from 1.49274e-007 +++to 1.49274e-007
Heightened Def Con from 1.49274e-007 +++to 1.49275e-007
Heightened Def Con from 1.49275e-007 +++to 1.49275e-007
Heightened Def Con from 1.49275e-007 +++to 1.49275e-007
Heightened Def Con from 1.49275e-007 +++to 1.49275e-007
Heightened Def Con from 1.49275e-007 +++to 1.49277e-007
Heightened Def Con from 1.49277e-007 +++to 1.49279e-007
Heightened Def Con from 1.49279e-007 +++to 1.49295e-007
Heightened Def Con from 1.49295e-007 +++to 1.4942e-007
Heightened Def Con from 1.4942e-007 +++to 1.49545e-007
Heightened Def Con from 1.49545e-007 +++to 1.4967e-007
Heightened Def Con from 1.4967e-007 +++to 1.49795e-007
Heightened Def Con from 1.49795e-007 +++to 1.4992e-007
Heightened Def Con from 1.4992e-007 +++to 1.50045e-007
Heightened Def Con from 1.50045e-007 +++to 1.5017e-007
Heightened Def Con from 1.5017e-007 +++to 1.50295e-007
Heightened Def Con from 1.50295e-007 +++to 1.5042e-007
Heightened Def Con from 1.5042e-007 +++to 1.5342e-007
Heightened Def Con from 1.21199e-005 +++++++++++++++++++to 1.2121e-005
Heightened Def Con from 1.2121e-005 ++++++++++++++++to 1.21211e-005
Heightened Def Con from 1.21211e-005 ++++++++++++++++to 1.21231e-005
Heightened Def Con from 1.21231e-005 ++++++++++++++++to 1.21253e-005
Heightened Def Con from 1.21253e-005 ++++++++++++++++to 1.21254e-005
Heightened Def Con from 1.21254e-005 ++++++++++++++++to 1.21255e-005
Heightened Def Con from 1.21255e-005 ++++++++++++++++to 1.21256e-005
Heightened Def Con from 1.21256e-005 ++++++++++++++++to 1.21258e-005
Heightened Def Con from 1.21258e-005 ++++++++++++++++to 1.21258e-005
Heightened Def Con from 1.21258e-005 ++++++++++++++++to 1.21258e-005
Heightened Def Con from 1.21258e-005 ++++++++++++++++to 1.21258e-005
Heightened Def Con from 1.21258e-005 ++++++++++++++++to 1.21259e-005
Heightened Def Con from 1.21259e-005 ++++++++++++++++to 1.21279e-005
Heightened Def Con from 1.21279e-005 ++++++++++++++++to 1.21299e-005
Heightened Def Con from 1.21299e-005 +++++++++++++++to 1.21309e-005
Heightened Def Con from 1.21309e-005 ++++++++++++++to 1.21319e-005
Heightened Def Con from 1.21319e-005 +++++++++++++to 1.21329e-005
Heightened Def Con from 1.21329e-005 +++to 1.21339e-005
Heightened Def Con from 1.21339e-005 +++to 1.21349e-005
Heightened Def Con from 1.21349e-005 +++to 1.21359e-005
Heightened Def Con from 1.21359e-005 +++to 1.21369e-005
Heightened Def Con from 1.21369e-005 +++to 1.21379e-005
Heightened Def Con from 1.21379e-005 +++to 1.21389e-005
Heightened Def Con from 1.21389e-005 +++to 1.21399e-005
Heightened Def Con from 1.21399e-005 +++to 1.21409e-005
Heightened Def Con from 1.21409e-005 +++to 1.21419e-005
Heightened Def Con from 1.21419e-005 +++to 1.21429e-005
Heightened Def Con from 1.21429e-005 +++to 1.21439e-005
Heightened Def Con from 1.21439e-005 +++to 1.21449e-005
Heightened Def Con from 1.21449e-005 +++to 1.21459e-005
Heightened Def Con from 1.21459e-005 +++to 1.21469e-005
Heightened Def Con from 1.21469e-005 +++to 1.21479e-005
Heightened Def Con from 1.21479e-005 +++to 1.21481e-005
Heightened Def Con from 1.21481e-005 +++to 1.21482e-005
Heightened Def Con from 1.21482e-005 +++to 1.21483e-005
Heightened Def Con from 1.21483e-005 +++to 1.21484e-005
Heightened Def Con from 1.21484e-005 +++to 1.21486e-005
Heightened Def Con from 1.21486e-005 +++to 1.21487e-005
Heightened Def Con from 1.21487e-005 +++to 1.21487e-005
Heightened Def Con from 1.21487e-005 +++to 1.21487e-005
Heightened Def Con from 1.21487e-005 +++to 1.21487e-005
Heightened Def Con from 1.21487e-005 +++to 1.21487e-005
Heightened Def Con from 1.21487e-005 +++to 1.21487e-005
Heightened Def Con from 1.21487e-005 +++to 1.21487e-005
Heightened Def Con from 1.21487e-005 +++to 1.21487e-005
Heightened Def Con from 1.21487e-005 +++to 1.21487e-005
Heightened Def Con from 1.21487e-005 +++to 1.21487e-005
Heightened Def Con from 1.21487e-005 +++to 1.21487e-005
Heightened Def Con from 1.21487e-005 +++to 1.21488e-005
Heightened Def Con from 1.21488e-005 +++to 1.21488e-005
Heightened Def Con from 1.21488e-005 +++to 1.21488e-005
Heightened Def Con from 1.21488e-005 +++to 1.21489e-005
Heightened Def Con from 1.21489e-005 +++to 1.2149e-005
Heightened Def Con from 1.2149e-005 +++to 1.21492e-005
Heightened Def Con from 1.21492e-005 +++to 1.21493e-005
Heightened Def Con from 1.21493e-005 +++to 1.21494e-005
Heightened Def Con from 1.21494e-005 +++to 1.21495e-005
Heightened Def Con from 1.21495e-005 +++to 1.21496e-005
Heightened Def Con from 1.21496e-005 +++to 1.21496e-005
Heightened Def Con from 1.21496e-005 +++to 1.21496e-005
Heightened Def Con from 1.21496e-005 +++to 1.21496e-005
Heightened Def Con from 1.21496e-005 ++++++++++++++++++++to 1.21507e-005
Heightened Def Con from 1.21507e-005 ++++++++++++++++++to 1.21537e-005
Heightened Def Con from 1.21537e-005 ++++++++++++++++++to 1.21558e-005
Heightened Def Con from 1.21558e-005 ++++++++++++++++++to 1.21568e-005
Heightened Def Con from 1.21568e-005 ++++++++++++++++++to 1.21578e-005
Heightened Def Con from 1.21578e-005 ++++++++++++++++++to 1.21588e-005
Heightened Def Con from 1.21588e-005 ++++++++++++++++++to 1.21598e-005
Heightened Def Con from 1.21598e-005 ++++++++++++++++++to 1.21608e-005
Heightened Def Con from 1.21608e-005 ++++++++++++++++++to 1.21618e-005
Heightened Def Con from 1.21618e-005 ++++++++++++++++++to 1.21628e-005
Heightened Def Con from 1.21628e-005 ++++++++++++++++++to 1.21638e-005
Heightened Def Con from 1.21638e-005 ++++++++++++++++++to 1.21648e-005
Heightened Def Con from 1.21648e-005 ++++++++++++++++++to 1.21658e-005
Heightened Def Con from 1.21658e-005 ++++++++++++++++++to 1.21668e-005
Heightened Def Con from 1.21668e-005 ++++++++++++++++++to 1.21678e-005
Heightened Def Con from 1.21678e-005 ++++++++++++++++++to 1.21688e-005
Heightened Def Con from 1.21688e-005 ++++++++++++++++++to 1.21698e-005
Heightened Def Con from 1.21698e-005 ++++++++++++++++++to 1.21708e-005
Heightened Def Con from 1.21708e-005 ++++++++++++++++++to 1.21718e-005
Heightened Def Con from 1.21718e-005 ++++++++++++++++++to 1.21728e-005
Heightened Def Con from 1.21728e-005 ++++++++++++++++++to 1.21738e-005
Heightened Def Con from 1.21738e-005 ++++++++++++++++++to 1.21748e-005
Heightened Def Con from 1.21748e-005 ++++++++++++++++++to 1.21758e-005
Heightened Def Con from 1.21758e-005 ++++++++++++++++++to 1.21768e-005
Heightened Def Con from 1.21768e-005 ++++++++++++++++++to 1.21778e-005
Heightened Def Con from 1.21778e-005 ++++++++++++++++++to 1.21788e-005
Heightened Def Con from 1.21788e-005 ++++++++++++++++++to 1.21798e-005
Heightened Def Con from 1.21798e-005 ++++++++++++++++++to 1.21808e-005
Heightened Def Con from 1.21808e-005 ++++++++++++++++++to 1.21818e-005
Heightened Def Con from 1.21818e-005 ++++++++++++++++++to 1.21828e-005
Heightened Def Con from 1.21828e-005 ++++++++++++++++++to 1.21838e-005
Heightened Def Con from 1.21838e-005 ++++++++++++++++++to 1.21848e-005
Heightened Def Con from 1.21848e-005 ++++++++++++++++++to 1.21858e-005
Heightened Def Con from 1.21858e-005 ++++++++++++++++++to 1.21868e-005
Heightened Def Con from 1.21868e-005 ++++++++++++++++++to 1.21878e-005
Heightened Def Con from 1.21878e-005 ++++++++++++++++++to 1.21888e-005
Heightened Def Con from 1.21888e-005 ++++++++++++++++++to 1.21898e-005
Heightened Def Con from 1.21898e-005 ++++++++++++++++++to 1.21908e-005
Heightened Def Con from 1.21908e-005 ++++++++++++++++++to 1.21918e-005
Heightened Def Con from 1.21918e-005 ++++++++++++++++++to 1.21928e-005
Heightened Def Con from 1.21928e-005 ++++++++++++++++++to 1.21938e-005
Heightened Def Con from 1.21938e-005 ++++++++++++++++++to 1.21948e-005
Heightened Def Con from 1.21948e-005 ++++++++++++++++++to 1.21958e-005
Heightened Def Con from 1.21958e-005 ++++++++++++++++++to 1.21968e-005
Heightened Def Con from 1.21968e-005 ++++++++++++++++++to 1.21978e-005
Heightened Def Con from 1.21978e-005 ++++++++++++++++++to 1.21988e-005
Heightened Def Con from 1.21988e-005 ++++++++++++++++++to 1.22e-005
Heightened Def Con from 1.22e-005 ++++++++++++++++++to 1.22001e-005
Heightened Def Con from 1.22001e-005 ++++++++++++++++++to 1.22011e-005
Heightened Def Con from 1.22011e-005 ++++++++++++++++++to 1.22021e-005
Heightened Def Con from 1.22021e-005 ++++++++++++++++++to 1.22031e-005
Heightened Def Con from 1.22031e-005 ++++++++++++++++++to 1.22041e-005
Heightened Def Con from 1.22041e-005 ++++++++++++++++++to 1.22051e-005
Heightened Def Con from 1.22051e-005 ++++++++++++++++++to 1.22061e-005
Heightened Def Con from 1.22061e-005 ++++++++++++++++++to 1.22071e-005
Heightened Def Con from 1.22071e-005 ++++++++++++++++++to 1.22081e-005
Heightened Def Con from 1.22081e-005 ++++++++++++++++++to 1.22091e-005
Heightened Def Con from 1.22091e-005 ++++++++++++++++++to 1.22101e-005
Heightened Def Con from 1.22101e-005 ++++++++++++++++++to 1.22111e-005
Heightened Def Con from 1.22111e-005 ++++++++++++++++++to 1.22121e-005
Heightened Def Con from 1.22121e-005 ++++++++++++++++++to 1.22131e-005
Heightened Def Con from 1.22131e-005 ++++++++++++++++++to 1.22141e-005
Heightened Def Con from 1.22141e-005 ++++++++++++++++++to 1.22151e-005
Heightened Def Con from 1.22151e-005 ++++++++++++++++++to 1.22161e-005
Heightened Def Con from 1.22161e-005 ++++++++++++++++++to 1.22171e-005
Heightened Def Con from 1.22171e-005 ++++++++++++++++++to 1.22181e-005
Heightened Def Con from 1.22181e-005 ++++++++++++++++++to 1.22191e-005
Heightened Def Con from 1.22191e-005 ++++++++++++++++++to 1.22201e-005
Heightened Def Con from 1.22201e-005 ++++++++++++++++++to 1.22211e-005
Heightened Def Con from 1.22211e-005 ++++++++++++++++++to 1.22221e-005
Heightened Def Con from 1.22221e-005 ++++++++++++++++++to 1.22231e-005
Heightened Def Con from 1.22231e-005 ++++++++++++++++++to 1.22241e-005
Heightened Def Con from 1.22241e-005 ++++++++++++++++++to 1.22251e-005
Heightened Def Con from 1.22251e-005 ++++++++++++++++++to 1.22261e-005
Heightened Def Con from 1.22261e-005 ++++++++++++++++++to 1.22271e-005
Heightened Def Con from 1.22271e-005 ++++++++++++++++++to 1.22281e-005
Heightened Def Con from 1.22281e-005 ++++++++++++++++++to 1.22291e-005
Heightened Def Con from 1.22291e-005 ++++++++++++++++++to 1.22301e-005
Heightened Def Con from 1.22301e-005 ++++++++++++++++++to 1.22311e-005
Heightened Def Con from 1.22311e-005 ++++++++++++++++++to 1.22321e-005
Heightened Def Con from 1.22321e-005 ++++++++++++++++++to 1.22331e-005
Heightened Def Con from 1.22331e-005 ++++++++++++++++++to 1.22341e-005
Heightened Def Con from 1.22341e-005 ++++++++++++++++++to 1.22351e-005
Heightened Def Con from 1.22351e-005 ++++++++++++++++++to 1.22361e-005
Heightened Def Con from 1.22361e-005 ++++++++++++++++++to 1.22371e-005
Heightened Def Con from 1.22371e-005 ++++++++++++++++++to 1.22381e-005
Heightened Def Con from 1.22381e-005 ++++++++++++++++++to 1.22391e-005
Heightened Def Con from 1.22391e-005 ++++++++++++++++++to 1.22401e-005
Heightened Def Con from 1.22401e-005 ++++++++++++++++++to 1.22411e-005
Heightened Def Con from 1.22411e-005 ++++++++++++++++++to 1.22421e-005
Heightened Def Con from 1.22421e-005 ++++++++++++++++++to 1.22431e-005
Heightened Def Con from 1.22431e-005 ++++++++++++++++++to 1.22441e-005
Heightened Def Con from 1.22441e-005 ++++++++++++++++++to 1.22451e-005
Heightened Def Con from 1.22451e-005 ++++++++++++++++++to 1.22461e-005
Heightened Def Con from 1.22461e-005 ++++++++++++++++++to 1.22471e-005
Heightened Def Con from 1.22471e-005 ++++++++++++++++++to 1.22481e-005
Heightened Def Con from 1.22481e-005 ++++++++++++++++++to 1.22491e-005
Heightened Def Con from 1.22491e-005 ++++++++++++++++++to 1.22501e-005
Heightened Def Con from 1.22501e-005 ++++++++++++++++++to 1.22511e-005
Heightened Def Con from 1.22511e-005 ++++++++++++++++++to 1.22521e-005
Heightened Def Con from 1.22521e-005 ++++++++++++++++++to 1.22531e-005
Heightened Def Con from 1.22531e-005 ++++++++++++++++++to 1.22541e-005
Heightened Def Con from 1.22541e-005 ++++++++++++++++++to 1.22551e-005
Heightened Def Con from 1.22551e-005 ++++++++++++++++++to 1.22561e-005
Heightened Def Con from 1.22561e-005 ++++++++++++++++++to 1.22571e-005
Heightened Def Con from 1.22571e-005 ++++++++++++++++++to 1.22581e-005
Heightened Def Con from 1.22581e-005 ++++++++++++++++++to 1.22591e-005
Heightened Def Con from 1.22591e-005 ++++++++++++++++++to 1.22601e-005
Heightened Def Con from 1.22601e-005 ++++++++++++++++++to 1.22611e-005
Heightened Def Con from 1.22611e-005 ++++++++++++++++++to 1.22621e-005
Heightened Def Con from 1.22621e-005 ++++++++++++++++++to 1.22631e-005
Heightened Def Con from 1.22631e-005 ++++++++++++++++++to 1.22641e-005
Heightened Def Con from 1.22641e-005 ++++++++++++++++++to 1.22651e-005
Heightened Def Con from 1.22651e-005 ++++++++++++++++++to 1.22661e-005
Heightened Def Con from 1.22661e-005 ++++++++++++++++++to 1.22671e-005
Heightened Def Con from 1.22671e-005 ++++++++++++++++++to 1.22681e-005
Heightened Def Con from 1.22681e-005 ++++++++++++++++++to 1.22691e-005
Heightened Def Con from 1.22691e-005 ++++++++++++++++++to 1.22701e-005
Heightened Def Con from 1.22701e-005 ++++++++++++++++++to 1.22711e-005
Heightened Def Con from 1.22711e-005 ++++++++++++++++++to 1.22721e-005
Heightened Def Con from 1.22721e-005 ++++++++++++++++++to 1.22731e-005
Heightened Def Con from 1.22731e-005 ++++++++++++++++++to 1.22741e-005
Heightened Def Con from 1.22741e-005 ++++++++++++++++++to 1.22751e-005
Heightened Def Con from 1.22751e-005 ++++++++++++++++++to 1.22761e-005
Heightened Def Con from 1.22761e-005 ++++++++++++++++++to 1.22771e-005
Heightened Def Con from 1.22771e-005 ++++++++++++++++++to 1.22781e-005
Heightened Def Con from 1.22781e-005 ++++++++++++++++++to 1.22791e-005
Heightened Def Con from 1.22791e-005 ++++++++++++++++++to 1.22801e-005
Heightened Def Con from 1.22801e-005 ++++++++++++++++++to 1.22811e-005
Heightened Def Con from 1.22811e-005 ++++++++++++++++++to 1.22821e-005
Heightened Def Con from 1.22821e-005 ++++++++++++++++++to 1.22831e-005
Heightened Def Con from 1.22831e-005 ++++++++++++++++++to 1.22841e-005
Heightened Def Con from 1.22841e-005 ++++++++++++++++++to 1.22851e-005
Heightened Def Con from 1.22851e-005 ++++++++++++++++++to 1.22861e-005
Heightened Def Con from 1.22861e-005 ++++++++++++++++++to 1.22871e-005
Heightened Def Con from 1.22871e-005 ++++++++++++++++++to 1.22881e-005
Heightened Def Con from 1.22881e-005 ++++++++++++++++++to 1.22891e-005
Heightened Def Con from 1.22891e-005 ++++++++++++++++++to 1.22901e-005
Heightened Def Con from 1.22901e-005 ++++++++++++++++++to 1.22911e-005
Heightened Def Con from 1.22911e-005 ++++++++++++++++++to 1.22921e-005
Heightened Def Con from 1.22921e-005 ++++++++++++++++++to 1.22931e-005
Heightened Def Con from 1.22931e-005 ++++++++++++++++++to 1.22941e-005
Heightened Def Con from 1.22941e-005 ++++++++++++++++++to 1.22951e-005
Heightened Def Con from 1.22951e-005 ++++++++++++++++++to 1.22961e-005
Heightened Def Con from 1.22961e-005 ++++++++++++++++++to 1.22971e-005
Heightened Def Con from 1.22971e-005 ++++++++++++++++++to 1.22981e-005
Heightened Def Con from 1.22981e-005 ++++++++++++++++++to 1.22991e-005
Heightened Def Con from 1.22991e-005 ++++++++++++++++++to 1.23001e-005
Heightened Def Con from 1.23001e-005 ++++++++++++++++++to 1.23011e-005
Heightened Def Con from 1.23011e-005 ++++++++++++++++++to 1.23021e-005
Heightened Def Con from 1.23021e-005 ++++++++++++++++++to 1.23031e-005
Heightened Def Con from 1.23031e-005 ++++++++++++++++++to 1.23041e-005
Heightened Def Con from 1.23041e-005 ++++++++++++++++++to 1.23051e-005
Heightened Def Con from 1.23051e-005 ++++++++++++++++++to 1.23061e-005
Heightened Def Con from 1.23061e-005 ++++++++++++++++++to 1.23071e-005
Heightened Def Con from 1.23071e-005 ++++++++++++++++++to 1.23081e-005
Heightened Def Con from 1.23081e-005 ++++++++++++++++++to 1.23091e-005
Heightened Def Con from 1.23091e-005 ++++++++++++++++++to 1.23101e-005
Heightened Def Con from 1.23101e-005 ++++++++++++++++++to 1.23111e-005
Heightened Def Con from 1.23111e-005 ++++++++++++++++++to 1.23121e-005
Heightened Def Con from 1.23121e-005 ++++++++++++++++++to 1.23131e-005
Heightened Def Con from 1.23131e-005 ++++++++++++++++++to 1.23141e-005
Heightened Def Con from 1.23141e-005 ++++++++++++++++++to 1.23151e-005
Heightened Def Con from 1.23151e-005 ++++++++++++++++++to 1.23161e-005
Heightened Def Con from 1.23161e-005 ++++++++++++++++++to 1.23171e-005
Heightened Def Con from 1.23171e-005 ++++++++++++++++++to 1.23181e-005
Heightened Def Con from 1.23181e-005 ++++++++++++++++++to 1.23191e-005
Heightened Def Con from 1.23191e-005 ++++++++++++++++++to 1.23201e-005
Heightened Def Con from 1.23201e-005 ++++++++++++++++++to 1.23211e-005
Heightened Def Con from 1.23211e-005 ++++++++++++++++++to 1.23221e-005
Heightened Def Con from 1.23221e-005 ++++++++++++++++++to 1.23231e-005
Heightened Def Con from 1.23231e-005 ++++++++++++++++++to 1.23241e-005
Heightened Def Con from 1.23241e-005 ++++++++++++++++++to 1.23251e-005
Heightened Def Con from 1.23251e-005 ++++++++++++++++++to 1.23261e-005
Heightened Def Con from 1.23261e-005 ++++++++++++++++++to 1.23271e-005
Heightened Def Con from 1.23271e-005 ++++++++++++++++++to 1.23281e-005
Heightened Def Con from 1.23281e-005 ++++++++++++++++++to 1.23291e-005
Heightened Def Con from 1.23291e-005 ++++++++++++++++++to 1.23301e-005
Heightened Def Con from 1.23301e-005 ++++++++++++++++++to 1.23311e-005
Heightened Def Con from 1.23311e-005 ++++++++++++++++++to 1.23321e-005
Heightened Def Con from 1.23321e-005 ++++++++++++++++++to 1.23331e-005
Heightened Def Con from 1.23331e-005 ++++++++++++++++++to 1.23341e-005
Heightened Def Con from 1.23341e-005 ++++++++++++++++++to 1.23351e-005
Heightened Def Con from 1.23351e-005 ++++++++++++++++++to 1.23361e-005
Heightened Def Con from 1.23361e-005 ++++++++++++++++++to 1.23371e-005
Heightened Def Con from 1.23371e-005 ++++++++++++++++++to 1.23381e-005
Heightened Def Con from 1.23381e-005 ++++++++++++++++++to 1.23391e-005
Heightened Def Con from 1.23391e-005 ++++++++++++++++++to 1.23401e-005
Heightened Def Con from 1.23401e-005 ++++++++++++++++++to 1.23411e-005
Heightened Def Con from 1.23411e-005 ++++++++++++++++++to 1.23421e-005
Heightened Def Con from 1.23421e-005 ++++++++++++++++++to 1.23431e-005
Heightened Def Con from 1.23431e-005 ++++++++++++++++++to 1.23441e-005
Heightened Def Con from 1.23441e-005 ++++++++++++++++++to 1.23451e-005
Heightened Def Con from 1.23451e-005 ++++++++++++++++++to 1.23461e-005
Heightened Def Con from 1.23461e-005 ++++++++++++++++++to 1.23471e-005
Heightened Def Con from 1.23471e-005 ++++++++++++++++++to 1.23481e-005
Heightened Def Con from 1.23481e-005 ++++++++++++++++++to 1.23491e-005
Heightened Def Con from 1.23491e-005 ++++++++++++++++++to 1.23501e-005
Heightened Def Con from 1.23501e-005 ++++++++++++++++++to 1.23511e-005
Heightened Def Con from 1.23511e-005 ++++++++++++++++++to 1.23521e-005
Heightened Def Con from 1.23521e-005 ++++++++++++++++++to 1.23531e-005
Heightened Def Con from 1.23531e-005 ++++++++++++++++++to 1.23541e-005
Heightened Def Con from 1.23541e-005 ++++++++++++++++++to 1.23551e-005
Heightened Def Con from 1.23551e-005 ++++++++++++++++++to 1.23561e-005
Heightened Def Con from 1.23561e-005 ++++++++++++++++++to 1.23571e-005
Heightened Def Con from 1.23571e-005 ++++++++++++++++++to 1.23581e-005
Heightened Def Con from 1.23581e-005 ++++++++++++++++++to 1.23591e-005
Heightened Def Con from 1.23591e-005 ++++++++++++++++++to 1.23601e-005
Heightened Def Con from 1.23601e-005 ++++++++++++++++++to 1.23611e-005
Heightened Def Con from 1.23611e-005 ++++++++++++++++++to 1.23621e-005
Heightened Def Con from 1.23621e-005 ++++++++++++++++++to 1.23631e-005
Heightened Def Con from 1.23631e-005 ++++++++++++++++++to 1.23641e-005
Heightened Def Con from 1.23641e-005 ++++++++++++++++++to 1.23651e-005
Heightened Def Con from 1.23651e-005 ++++++++++++++++++to 1.23661e-005
Heightened Def Con from 1.23661e-005 ++++++++++++++++++to 1.23671e-005
Heightened Def Con from 1.23671e-005 ++++++++++++++++++to 1.23681e-005
Heightened Def Con from 1.23681e-005 ++++++++++++++++++to 1.23691e-005
Heightened Def Con from 1.23691e-005 ++++++++++++++++++to 1.23701e-005
Heightened Def Con from 1.23701e-005 ++++++++++++++++++to 1.23711e-005
Heightened Def Con from 1.23711e-005 ++++++++++++++++++to 1.23721e-005
Heightened Def Con from 1.23721e-005 ++++++++++++++++++to 1.23731e-005
Heightened Def Con from 1.23731e-005 ++++++++++++++++++to 1.23741e-005
Heightened Def Con from 1.23741e-005 ++++++++++++++++++to 1.23751e-005
Heightened Def Con from 1.23751e-005 ++++++++++++++++++to 1.23761e-005
Heightened Def Con from 1.23761e-005 ++++++++++++++++++to 1.23771e-005
Heightened Def Con from 1.23771e-005 ++++++++++++++++++to 1.23781e-005
Heightened Def Con from 1.23781e-005 ++++++++++++++++++to 1.23791e-005
Heightened Def Con from 1.23791e-005 ++++++++++++++++++to 1.23801e-005
Heightened Def Con from 1.23801e-005 ++++++++++++++++++to 1.23811e-005
Heightened Def Con from 1.23811e-005 ++++++++++++++++++to 1.23821e-005
Heightened Def Con from 1.23821e-005 ++++++++++++++++++to 1.23831e-005
Heightened Def Con from 1.23831e-005 ++++++++++++++++++to 1.23841e-005
Heightened Def Con from 1.23841e-005 ++++++++++++++++++to 1.23851e-005
Heightened Def Con from 1.23851e-005 ++++++++++++++++++to 1.23861e-005
Heightened Def Con from 1.23861e-005 ++++++++++++++++++to 1.23871e-005
Heightened Def Con from 1.23871e-005 ++++++++++++++++++to 1.23881e-005
Heightened Def Con from 1.23881e-005 ++++++++++++++++++to 1.23891e-005
Heightened Def Con from 1.23891e-005 ++++++++++++++++++to 1.23901e-005
Heightened Def Con from 1.23901e-005 ++++++++++++++++++to 1.23911e-005
Heightened Def Con from 1.23911e-005 ++++++++++++++++++to 1.23921e-005
Heightened Def Con from 1.23921e-005 ++++++++++++++++++to 1.23931e-005
Heightened Def Con from 1.23931e-005 ++++++++++++++++++to 1.23941e-005
Heightened Def Con from 1.23941e-005 ++++++++++++++++++to 1.23951e-005
Heightened Def Con from 1.23951e-005 ++++++++++++++++++to 1.23961e-005
Heightened Def Con from 1.23961e-005 ++++++++++++++++++to 1.23971e-005
Heightened Def Con from 1.23971e-005 ++++++++++++++++++to 1.23981e-005
Heightened Def Con from 1.23981e-005 ++++++++++++++++++to 1.23991e-005
Heightened Def Con from 1.23991e-005 ++++++++++++++++++to 1.24001e-005
Heightened Def Con from 1.24001e-005 ++++++++++++++++++to 1.24011e-005
Heightened Def Con from 1.24011e-005 ++++++++++++++++++to 1.24021e-005
Heightened Def Con from 1.24021e-005 ++++++++++++++++++to 1.24031e-005
Heightened Def Con from 1.24031e-005 ++++++++++++++++++to 1.24041e-005
Heightened Def Con from 1.24041e-005 ++++++++++++++++++to 1.24051e-005
Heightened Def Con from 1.24051e-005 ++++++++++++++++++to 1.24061e-005
Heightened Def Con from 1.24061e-005 ++++++++++++++++++to 1.24071e-005
Heightened Def Con from 1.24071e-005 ++++++++++++++++++to 1.24081e-005
Heightened Def Con from 1.24081e-005 ++++++++++++++++++to 1.24091e-005
Heightened Def Con from 1.24091e-005 ++++++++++++++++++to 1.24101e-005
Heightened Def Con from 1.24101e-005 ++++++++++++++++++to 1.24111e-005
Heightened Def Con from 1.24111e-005 ++++++++++++++++++to 1.24121e-005
Heightened Def Con from 1.24121e-005 ++++++++++++++++++to 1.24131e-005
Heightened Def Con from 1.24131e-005 ++++++++++++++++++to 1.24141e-005
Heightened Def Con from 1.24141e-005 ++++++++++++++++++to 1.24151e-005
Heightened Def Con from 1.24151e-005 ++++++++++++++++++to 1.24161e-005
Heightened Def Con from 1.24161e-005 ++++++++++++++++++to 1.24171e-005
Heightened Def Con from 1.24171e-005 ++++++++++++++++++to 1.24181e-005
Heightened Def Con from 1.24181e-005 ++++++++++++++++++to 1.24191e-005
Heightened Def Con from 1.24191e-005 ++++++++++++++++++to 1.24201e-005
Heightened Def Con from 1.24201e-005 ++++++++++++++++++to 1.24211e-005
Heightened Def Con from 1.24211e-005 ++++++++++++++++++to 1.24221e-005
Heightened Def Con from 1.24221e-005 ++++++++++++++++++to 1.24231e-005
Heightened Def Con from 1.24231e-005 ++++++++++++++++++to 1.24241e-005
Heightened Def Con from 1.24241e-005 ++++++++++++++++++to 1.24251e-005
Heightened Def Con from 1.24251e-005 ++++++++++++++++++to 1.24261e-005
Heightened Def Con from 1.24261e-005 ++++++++++++++++++to 1.24271e-005
Heightened Def Con from 1.24271e-005 ++++++++++++++++++to 1.24281e-005
Heightened Def Con from 1.24281e-005 ++++++++++++++++++to 1.24291e-005
Heightened Def Con from 1.24291e-005 ++++++++++++++++++to 1.24301e-005
Heightened Def Con from 1.24301e-005 ++++++++++++++++++to 1.24311e-005
Heightened Def Con from 1.24311e-005 ++++++++++++++++++to 1.24321e-005
Heightened Def Con from 1.24321e-005 ++++++++++++++++++to 1.24331e-005
Heightened Def Con from 1.24331e-005 ++++++++++++++++++to 1.24341e-005
Heightened Def Con from 1.24341e-005 ++++++++++++++++++to 1.24351e-005
Heightened Def Con from 1.24351e-005 ++++++++++++++++++to 1.24361e-005
Heightened Def Con from 1.24361e-005 ++++++++++++++++++to 1.24371e-005
Heightened Def Con from 1.24371e-005 ++++++++++++++++++to 1.24381e-005
Heightened Def Con from 1.24381e-005 ++++++++++++++++++to 1.24391e-005
Heightened Def Con from 1.24391e-005 ++++++++++++++++++to 1.24401e-005
Heightened Def Con from 1.24401e-005 ++++++++++++++++++to 1.24411e-005
Heightened Def Con from 1.24411e-005 ++++++++++++++++++to 1.24421e-005
Heightened Def Con from 1.24421e-005 ++++++++++++++++++to 1.24431e-005
Heightened Def Con from 1.24431e-005 ++++++++++++++++++to 1.24441e-005
Heightened Def Con from 1.24441e-005 ++++++++++++++++++to 1.24451e-005
Heightened Def Con from 1.24451e-005 ++++++++++++++++++to 1.24461e-005
Heightened Def Con from 1.24461e-005 ++++++++++++++++++to 1.24471e-005
Heightened Def Con from 1.24471e-005 ++++++++++++++++++to 1.24481e-005
Heightened Def Con from 1.24481e-005 ++++++++++++++++++to 1.24491e-005
Heightened Def Con from 1.24491e-005 ++++++++++++++++++to 1.24501e-005
Heightened Def Con from 1.24501e-005 ++++++++++++++++++to 1.24511e-005
Heightened Def Con from 1.24511e-005 ++++++++++++++++++to 1.24521e-005
Heightened Def Con from 1.24521e-005 ++++++++++++++++++to 1.24531e-005
Heightened Def Con from 1.24531e-005 ++++++++++++++++++to 1.24541e-005
Heightened Def Con from 1.24541e-005 ++++++++++++++++++to 1.24551e-005
Heightened Def Con from 1.24551e-005 ++++++++++++++++++to 1.24561e-005
Heightened Def Con from 1.24561e-005 ++++++++++++++++++to 1.24571e-005
Heightened Def Con from 1.24571e-005 ++++++++++++++++++to 1.24581e-005
Heightened Def Con from 1.24581e-005 ++++++++++++++++++to 1.24591e-005
Heightened Def Con from 1.24591e-005 ++++++++++++++++++to 1.24601e-005
Heightened Def Con from 1.24601e-005 ++++++++++++++++++to 1.24611e-005
Heightened Def Con from 1.24611e-005 ++++++++++++++++++to 1.24621e-005
Heightened Def Con from 1.24621e-005 ++++++++++++++++++to 1.24631e-005
Heightened Def Con from 1.24631e-005 ++++++++++++++++++to 1.24641e-005
Heightened Def Con from 1.24641e-005 ++++++++++++++++++to 1.24651e-005
Heightened Def Con from 1.24651e-005 ++++++++++++++++++to 1.24661e-005
Heightened Def Con from 1.24661e-005 ++++++++++++++++++to 1.24671e-005
Heightened Def Con from 1.24671e-005 ++++++++++++++++++to 1.24681e-005
Heightened Def Con from 1.24681e-005 ++++++++++++++++++to 1.24691e-005
Heightened Def Con from 1.24691e-005 ++++++++++++++++++to 1.24701e-005
Heightened Def Con from 1.24701e-005 ++++++++++++++++++to 1.24711e-005
Heightened Def Con from 1.24711e-005 ++++++++++++++++++to 1.24721e-005
Heightened Def Con from 1.24721e-005 ++++++++++++++++++to 1.24731e-005
Heightened Def Con from 1.24731e-005 ++++++++++++++++++to 1.24741e-005
Heightened Def Con from 1.24741e-005 ++++++++++++++++++to 1.24751e-005
Heightened Def Con from 1.24751e-005 ++++++++++++++++++to 1.24761e-005
Heightened Def Con from 1.24761e-005 ++++++++++++++++++to 1.24771e-005
Heightened Def Con from 1.24771e-005 ++++++++++++++++++to 1.24781e-005
Heightened Def Con from 1.24781e-005 ++++++++++++++++++to 1.24791e-005
Heightened Def Con from 1.24791e-005 ++++++++++++++++++to 1.24801e-005
Heightened Def Con from 1.24801e-005 ++++++++++++++++++to 1.24811e-005
Heightened Def Con from 1.24811e-005 ++++++++++++++++++to 1.24821e-005
Heightened Def Con from 1.24821e-005 ++++++++++++++++++to 1.24831e-005
Heightened Def Con from 1.24831e-005 ++++++++++++++++++to 1.24841e-005
Heightened Def Con from 1.24841e-005 ++++++++++++++++++to 1.24851e-005
Heightened Def Con from 1.24851e-005 ++++++++++++++++++to 1.24861e-005
Heightened Def Con from 1.24861e-005 ++++++++++++++++++to 1.24871e-005
Heightened Def Con from 1.24871e-005 ++++++++++++++++++to 1.24881e-005
Heightened Def Con from 1.24881e-005 ++++++++++++++++++to 1.24891e-005
Heightened Def Con from 1.24891e-005 ++++++++++++++++++to 1.24901e-005
Heightened Def Con from 1.24901e-005 ++++++++++++++++++to 1.24911e-005
Heightened Def Con from 1.24911e-005 ++++++++++++++++++to 1.24921e-005
Heightened Def Con from 1.24921e-005 ++++++++++++++++++to 1.24931e-005
Heightened Def Con from 1.24931e-005 ++++++++++++++++++to 1.24941e-005
Heightened Def Con from 1.24941e-005 ++++++++++++++++++to 1.24951e-005
Heightened Def Con from 1.24951e-005 ++++++++++++++++++to 1.24961e-005
Heightened Def Con from 1.24961e-005 ++++++++++++++++++to 1.24971e-005
Heightened Def Con from 1.24971e-005 ++++++++++++++++++to 1.24981e-005
Heightened Def Con from 1.24981e-005 ++++++++++++++++++to 1.24991e-005
Heightened Def Con from 1.24991e-005 ++++++++++++++++++to 1.25001e-005
Heightened Def Con from 1.25001e-005 ++++++++++++++++++to 1.25011e-005
Heightened Def Con from 1.25011e-005 ++++++++++++++++++to 1.25021e-005
Heightened Def Con from 1.25021e-005 ++++++++++++++++++to 1.25031e-005
Heightened Def Con from 1.25031e-005 ++++++++++++++++++to 1.25041e-005
Heightened Def Con from 1.25041e-005 ++++++++++++++++++to 1.25051e-005
Heightened Def Con from 1.25051e-005 ++++++++++++++++++to 1.25061e-005
Heightened Def Con from 1.25061e-005 ++++++++++++++++++to 1.25071e-005
Heightened Def Con from 1.25071e-005 ++++++++++++++++++to 1.25081e-005
Heightened Def Con from 1.25081e-005 ++++++++++++++++++to 1.25091e-005
Heightened Def Con from 1.25091e-005 ++++++++++++++++++to 1.25101e-005
Heightened Def Con from 1.25101e-005 ++++++++++++++++++to 1.25111e-005
Heightened Def Con from 1.25111e-005 ++++++++++++++++++to 1.25121e-005
Heightened Def Con from 1.25121e-005 ++++++++++++++++++to 1.25131e-005
Heightened Def Con from 1.25131e-005 ++++++++++++++++++to 1.25141e-005
Heightened Def Con from 1.25141e-005 ++++++++++++++++++to 1.25151e-005
Heightened Def Con from 1.25151e-005 ++++++++++++++++++to 1.25161e-005
Heightened Def Con from 1.25161e-005 ++++++++++++++++++to 1.25171e-005
Heightened Def Con from 1.25171e-005 ++++++++++++++++++to 1.25181e-005
Heightened Def Con from 1.25181e-005 ++++++++++++++++++to 1.25191e-005
Heightened Def Con from 1.25191e-005 ++++++++++++++++++to 1.25201e-005
Heightened Def Con from 1.25201e-005 ++++++++++++++++++to 1.25211e-005
Heightened Def Con from 1.25211e-005 ++++++++++++++++++to 1.25221e-005
Heightened Def Con from 1.25221e-005 ++++++++++++++++++to 1.25231e-005
Heightened Def Con from 1.25231e-005 ++++++++++++++++++to 1.25241e-005
Heightened Def Con from 1.25241e-005 ++++++++++++++++++to 1.25251e-005
Heightened Def Con from 1.25251e-005 ++++++++++++++++++to 1.25261e-005
Heightened Def Con from 1.25261e-005 ++++++++++++++++++to 1.25271e-005
Heightened Def Con from 1.25271e-005 ++++++++++++++++++to 1.25281e-005
Heightened Def Con from 1.25281e-005 ++++++++++++++++++to 1.25291e-005
Heightened Def Con from 1.25291e-005 ++++++++++++++++++to 1.25301e-005
Heightened Def Con from 1.25301e-005 ++++++++++++++++++to 1.25311e-005
Heightened Def Con from 1.25311e-005 ++++++++++++++++++to 1.25321e-005
Heightened Def Con from 1.25321e-005 ++++++++++++++++++to 1.25331e-005
Heightened Def Con from 1.25331e-005 ++++++++++++++++++to 1.25341e-005
Heightened Def Con from 1.25341e-005 ++++++++++++++++++to 1.25351e-005
Heightened Def Con from 1.25351e-005 ++++++++++++++++++to 1.25361e-005
Heightened Def Con from 1.25361e-005 ++++++++++++++++++to 1.25371e-005
Heightened Def Con from 1.25371e-005 ++++++++++++++++++to 1.25381e-005
Heightened Def Con from 1.25381e-005 ++++++++++++++++++to 1.25391e-005
Heightened Def Con from 1.25391e-005 ++++++++++++++++++to 1.25401e-005
Heightened Def Con from 1.25401e-005 ++++++++++++++++++to 1.25411e-005
Heightened Def Con from 1.25411e-005 ++++++++++++++++++to 1.25421e-005
Heightened Def Con from 1.25421e-005 ++++++++++++++++++to 1.25431e-005
Heightened Def Con from 1.25431e-005 ++++++++++++++++++to 1.25441e-005
Heightened Def Con from 1.25441e-005 ++++++++++++++++++to 1.25451e-005
Heightened Def Con from 1.25451e-005 ++++++++++++++++++to 1.25461e-005
Heightened Def Con from 1.25461e-005 ++++++++++++++++++to 1.25471e-005
Heightened Def Con from 1.25471e-005 ++++++++++++++++++to 1.25481e-005
Heightened Def Con from 1.25481e-005 ++++++++++++++++++to 1.25491e-005
Heightened Def Con from 1.25491e-005 ++++++++++++++++++to 1.25501e-005
Heightened Def Con from 1.25501e-005 ++++++++++++++++++to 1.25511e-005
Heightened Def Con from 1.25511e-005 ++++++++++++++++++to 1.25521e-005
Heightened Def Con from 1.25521e-005 ++++++++++++++++++to 1.25531e-005
Heightened Def Con from 1.25531e-005 ++++++++++++++++++to 1.25541e-005
Heightened Def Con from 1.25541e-005 ++++++++++++++++++to 1.25551e-005
Heightened Def Con from 1.25551e-005 ++++++++++++++++++to 1.25561e-005
Heightened Def Con from 1.25561e-005 ++++++++++++++++++to 1.25571e-005
Heightened Def Con from 1.25571e-005 ++++++++++++++++++to 1.25581e-005
Heightened Def Con from 1.25581e-005 ++++++++++++++++++to 1.25591e-005
Heightened Def Con from 1.25591e-005 ++++++++++++++++++to 1.25601e-005
Heightened Def Con from 1.25601e-005 ++++++++++++++++++to 1.25611e-005
Heightened Def Con from 1.25611e-005 ++++++++++++++++++to 1.25621e-005
Heightened Def Con from 1.25621e-005 ++++++++++++++++++to 1.25631e-005
Heightened Def Con from 1.25631e-005 ++++++++++++++++++to 1.25641e-005
Heightened Def Con from 1.25641e-005 ++++++++++++++++++to 1.25651e-005
Heightened Def Con from 1.25651e-005 ++++++++++++++++++to 1.25661e-005
Heightened Def Con from 1.25661e-005 ++++++++++++++++++to 1.25671e-005
Heightened Def Con from 1.25671e-005 ++++++++++++++++++to 1.25681e-005
Heightened Def Con from 1.25681e-005 ++++++++++++++++++to 1.25691e-005
Heightened Def Con from 1.25691e-005 ++++++++++++++++++to 1.25701e-005
Heightened Def Con from 1.25701e-005 ++++++++++++++++++to 1.25711e-005
Heightened Def Con from 1.25711e-005 ++++++++++++++++++to 1.25721e-005
Heightened Def Con from 1.25721e-005 ++++++++++++++++++to 1.25731e-005
Heightened Def Con from 1.25731e-005 ++++++++++++++++++to 1.25741e-005
Heightened Def Con from 1.25741e-005 ++++++++++++++++++to 1.25751e-005
Heightened Def Con from 1.25751e-005 ++++++++++++++++++to 1.25761e-005
Heightened Def Con from 1.25761e-005 ++++++++++++++++++to 1.25771e-005
Heightened Def Con from 1.25771e-005 ++++++++++++++++++to 1.25781e-005
Heightened Def Con from 1.25781e-005 ++++++++++++++++++to 1.25791e-005
Heightened Def Con from 1.25791e-005 ++++++++++++++++++to 1.25801e-005
Heightened Def Con from 1.25801e-005 ++++++++++++++++++to 1.25811e-005
Heightened Def Con from 1.25811e-005 ++++++++++++++++++to 1.25821e-005
Heightened Def Con from 1.25821e-005 ++++++++++++++++++to 1.25831e-005
Heightened Def Con from 1.25831e-005 ++++++++++++++++++to 1.25841e-005
Heightened Def Con from 1.25841e-005 ++++++++++++++++++to 1.25851e-005
Heightened Def Con from 1.25851e-005 ++++++++++++++++++to 1.25861e-005
Heightened Def Con from 1.25861e-005 ++++++++++++++++++to 1.25871e-005
Heightened Def Con from 1.25871e-005 ++++++++++++++++++to 1.25881e-005
Heightened Def Con from 1.25881e-005 ++++++++++++++++++to 1.25891e-005
Heightened Def Con from 1.25891e-005 ++++++++++++++++++to 1.25901e-005
Heightened Def Con from 1.25901e-005 ++++++++++++++++++to 1.25911e-005
Heightened Def Con from 1.25911e-005 ++++++++++++++++++to 1.25921e-005
Heightened Def Con from 1.25921e-005 ++++++++++++++++++to 1.25931e-005
Heightened Def Con from 1.25931e-005 ++++++++++++++++++to 1.25941e-005
Heightened Def Con from 1.25941e-005 ++++++++++++++++++to 1.25951e-005
Heightened Def Con from 1.25951e-005 ++++++++++++++++++to 1.25961e-005
Heightened Def Con from 1.25961e-005 ++++++++++++++++++to 1.25971e-005
Heightened Def Con from 1.25971e-005 ++++++++++++++++++to 1.25981e-005
Heightened Def Con from 1.25981e-005 ++++++++++++++++++to 1.25991e-005
Heightened Def Con from 1.25991e-005 ++++++++++++++++++to 1.26001e-005
Heightened Def Con from 1.26001e-005 ++++++++++++++++++to 1.26011e-005
Heightened Def Con from 1.26011e-005 ++++++++++++++++++to 1.26021e-005
Heightened Def Con from 1.26021e-005 ++++++++++++++++++to 1.26031e-005
Heightened Def Con from 1.26031e-005 ++++++++++++++++++to 1.26041e-005
Heightened Def Con from 1.26041e-005 ++++++++++++++++++to 1.26051e-005
Heightened Def Con from 1.26051e-005 ++++++++++++++++++to 1.26061e-005
Heightened Def Con from 1.26061e-005 ++++++++++++++++++to 1.26071e-005
Heightened Def Con from 1.26071e-005 ++++++++++++++++++to 1.26081e-005
Heightened Def Con from 1.26081e-005 ++++++++++++++++++to 1.26091e-005
Heightened Def Con from 1.26091e-005 ++++++++++++++++++to 1.26101e-005
Heightened Def Con from 1.26101e-005 ++++++++++++++++++to 1.26111e-005
Heightened Def Con from 1.26111e-005 ++++++++++++++++++to 1.26121e-005
Heightened Def Con from 1.26121e-005 ++++++++++++++++++to 1.26131e-005
Heightened Def Con from 1.26131e-005 ++++++++++++++++++to 1.26141e-005
Heightened Def Con from 1.26141e-005 ++++++++++++++++++to 1.26151e-005
Heightened Def Con from 1.26151e-005 ++++++++++++++++++to 1.26161e-005
Heightened Def Con from 1.26161e-005 ++++++++++++++++++to 1.26171e-005
Heightened Def Con from 1.26171e-005 ++++++++++++++++++to 1.26181e-005
Heightened Def Con from 1.26181e-005 ++++++++++++++++++to 1.26191e-005
Heightened Def Con from 1.26191e-005 ++++++++++++++++++to 1.26201e-005
Heightened Def Con from 1.26201e-005 ++++++++++++++++++to 1.26211e-005
Heightened Def Con from 1.26211e-005 ++++++++++++++++++to 1.26221e-005
Heightened Def Con from 1.26221e-005 ++++++++++++++++++to 1.26231e-005
Heightened Def Con from 1.26231e-005 ++++++++++++++++++to 1.26241e-005
Heightened Def Con from 1.26241e-005 ++++++++++++++++++to 1.26251e-005
Heightened Def Con from 1.26251e-005 ++++++++++++++++++to 1.26261e-005
Heightened Def Con from 1.26261e-005 ++++++++++++++++++to 1.26271e-005
Heightened Def Con from 1.26271e-005 ++++++++++++++++++to 1.26281e-005
Heightened Def Con from 1.26281e-005 ++++++++++++++++++to 1.26291e-005
Heightened Def Con from 1.26291e-005 ++++++++++++++++++to 1.26301e-005
Heightened Def Con from 1.26301e-005 ++++++++++++++++++to 1.26311e-005
Heightened Def Con from 1.26311e-005 ++++++++++++++++++to 1.26321e-005
Heightened Def Con from 1.26321e-005 ++++++++++++++++++to 1.26331e-005
Heightened Def Con from 1.26331e-005 ++++++++++++++++++to 1.26341e-005
Heightened Def Con from 1.26341e-005 ++++++++++++++++++to 1.26351e-005
Heightened Def Con from 1.26351e-005 ++++++++++++++++++to 1.26361e-005
Heightened Def Con from 1.26361e-005 ++++++++++++++++++to 1.26371e-005
Heightened Def Con from 1.26371e-005 ++++++++++++++++++to 1.26381e-005
Heightened Def Con from 1.26381e-005 ++++++++++++++++++to 1.26391e-005
Heightened Def Con from 1.26391e-005 ++++++++++++++++++to 1.26401e-005
Heightened Def Con from 1.26401e-005 ++++++++++++++++++to 1.26411e-005
Heightened Def Con from 1.26411e-005 ++++++++++++++++++to 1.26421e-005
Heightened Def Con from 1.26421e-005 ++++++++++++++++++to 1.26431e-005
Heightened Def Con from 1.26431e-005 ++++++++++++++++++to 1.26441e-005
Heightened Def Con from 1.26441e-005 ++++++++++++++++++to 1.26451e-005
Heightened Def Con from 1.26451e-005 ++++++++++++++++++to 1.26461e-005
Heightened Def Con from 1.26461e-005 ++++++++++++++++++to 1.26471e-005
Heightened Def Con from 1.26471e-005 ++++++++++++++++++to 1.26481e-005
Heightened Def Con from 1.26481e-005 ++++++++++++++++++to 1.26491e-005
Heightened Def Con from 1.26491e-005 ++++++++++++++++++to 1.26501e-005
Heightened Def Con from 1.26501e-005 ++++++++++++++++++to 1.26511e-005
Heightened Def Con from 1.26511e-005 ++++++++++++++++++to 1.26521e-005
Heightened Def Con from 1.26521e-005 ++++++++++++++++++to 1.26531e-005
Heightened Def Con from 1.26531e-005 ++++++++++++++++++to 1.26541e-005
Heightened Def Con from 1.26541e-005 ++++++++++++++++++to 1.26551e-005
Heightened Def Con from 1.26551e-005 ++++++++++++++++++to 1.26561e-005
Heightened Def Con from 1.26561e-005 ++++++++++++++++++to 1.26571e-005
Heightened Def Con from 1.26571e-005 ++++++++++++++++++to 1.26581e-005
Heightened Def Con from 1.26581e-005 ++++++++++++++++++to 1.26591e-005
Heightened Def Con from 1.26591e-005 ++++++++++++++++++to 1.26601e-005
Heightened Def Con from 1.26601e-005 ++++++++++++++++++to 1.26611e-005
Heightened Def Con from 1.26611e-005 ++++++++++++++++++to 1.26621e-005
Heightened Def Con from 1.26621e-005 ++++++++++++++++++to 1.26631e-005
Heightened Def Con from 1.26631e-005 ++++++++++++++++++to 1.26641e-005
Heightened Def Con from 1.26641e-005 ++++++++++++++++++to 1.26651e-005
Heightened Def Con from 1.26651e-005 ++++++++++++++++++to 1.26661e-005
Heightened Def Con from 1.26661e-005 ++++++++++++++++++to 1.26671e-005
Heightened Def Con from 1.26671e-005 ++++++++++++++++++to 1.26681e-005
Heightened Def Con from 1.26681e-005 ++++++++++++++++++to 1.26691e-005
Heightened Def Con from 1.26691e-005 ++++++++++++++++++to 1.26701e-005
Heightened Def Con from 1.26701e-005 ++++++++++++++++++to 1.26711e-005
Heightened Def Con from 1.26711e-005 ++++++++++++++++++to 1.26721e-005
Heightened Def Con from 1.26721e-005 ++++++++++++++++++to 1.26731e-005
Heightened Def Con from 1.26731e-005 ++++++++++++++++++to 1.26741e-005
Heightened Def Con from 1.26741e-005 ++++++++++++++++++to 1.26751e-005
Heightened Def Con from 1.26751e-005 ++++++++++++++++++to 1.26761e-005
Heightened Def Con from 1.26761e-005 ++++++++++++++++++to 1.26771e-005
Heightened Def Con from 1.26771e-005 ++++++++++++++++++to 1.26781e-005
Heightened Def Con from 1.26781e-005 ++++++++++++++++++to 1.26791e-005
Heightened Def Con from 1.26791e-005 ++++++++++++++++++to 1.26801e-005
Heightened Def Con from 1.26801e-005 ++++++++++++++++++to 1.26811e-005
Heightened Def Con from 1.26811e-005 ++++++++++++++++++to 1.26821e-005
Heightened Def Con from 1.26821e-005 ++++++++++++++++++to 1.26831e-005
Heightened Def Con from 1.26831e-005 ++++++++++++++++++to 1.26841e-005
Heightened Def Con from 1.26841e-005 ++++++++++++++++++to 1.26851e-005
Heightened Def Con from 1.26851e-005 ++++++++++++++++++to 1.26861e-005
Heightened Def Con from 1.26861e-005 ++++++++++++++++++to 1.26871e-005
Heightened Def Con from 1.26871e-005 ++++++++++++++++++to 1.26881e-005
Heightened Def Con from 1.26881e-005 ++++++++++++++++++to 1.26891e-005
Heightened Def Con from 1.26891e-005 ++++++++++++++++++to 1.26901e-005
Heightened Def Con from 1.26901e-005 ++++++++++++++++++to 1.26911e-005
Heightened Def Con from 1.26911e-005 ++++++++++++++++++to 1.26921e-005
Heightened Def Con from 1.26921e-005 ++++++++++++++++++to 1.26931e-005
Heightened Def Con from 1.26931e-005 ++++++++++++++++++to 1.26941e-005
Heightened Def Con from 1.26941e-005 ++++++++++++++++++to 1.26951e-005
Heightened Def Con from 1.26951e-005 ++++++++++++++++++to 1.26961e-005
Heightened Def Con from 1.26961e-005 ++++++++++++++++++to 1.26971e-005
Heightened Def Con from 1.26971e-005 ++++++++++++++++++to 1.26981e-005
Heightened Def Con from 1.26981e-005 ++++++++++++++++++to 1.26991e-005
Heightened Def Con from 1.26991e-005 ++++++++++++++++++to 1.27001e-005
Heightened Def Con from 1.27001e-005 ++++++++++++++++++to 1.27011e-005
Heightened Def Con from 1.27011e-005 ++++++++++++++++++to 1.27021e-005
Heightened Def Con from 1.27021e-005 ++++++++++++++++++to 1.27031e-005
Heightened Def Con from 1.27031e-005 ++++++++++++++++++to 1.27041e-005
Heightened Def Con from 1.27041e-005 ++++++++++++++++++to 1.27051e-005
Heightened Def Con from 1.27051e-005 ++++++++++++++++++to 1.27061e-005
Heightened Def Con from 1.27061e-005 ++++++++++++++++++to 1.27071e-005
Heightened Def Con from 1.27071e-005 ++++++++++++++++++to 1.27081e-005
Heightened Def Con from 1.27081e-005 ++++++++++++++++++to 1.27091e-005
Heightened Def Con from 1.27091e-005 ++++++++++++++++++to 1.27101e-005
Heightened Def Con from 1.27101e-005 ++++++++++++++++++to 1.27111e-005
Heightened Def Con from 1.27111e-005 ++++++++++++++++++to 1.27121e-005
Heightened Def Con from 1.27121e-005 ++++++++++++++++++to 1.27131e-005
Heightened Def Con from 1.27131e-005 ++++++++++++++++++to 1.27141e-005
Heightened Def Con from 1.27141e-005 ++++++++++++++++++to 1.27151e-005
Heightened Def Con from 1.27151e-005 ++++++++++++++++++to 1.27161e-005
Heightened Def Con from 1.27161e-005 ++++++++++++++++++to 1.27171e-005
Heightened Def Con from 1.27171e-005 ++++++++++++++++++to 1.27181e-005
Heightened Def Con from 1.27181e-005 ++++++++++++++++++to 1.27191e-005
Heightened Def Con from 1.27191e-005 ++++++++++++++++++to 1.27201e-005
Heightened Def Con from 1.27201e-005 ++++++++++++++++++to 1.27211e-005
Heightened Def Con from 1.27211e-005 ++++++++++++++++++to 1.27221e-005
Heightened Def Con from 1.27221e-005 ++++++++++++++++++to 1.27231e-005
Heightened Def Con from 1.27231e-005 ++++++++++++++++++to 1.27241e-005
Heightened Def Con from 1.27241e-005 ++++++++++++++++++to 1.27251e-005
Heightened Def Con from 1.27251e-005 ++++++++++++++++++to 1.27261e-005
Heightened Def Con from 1.27261e-005 ++++++++++++++++++to 1.27271e-005
Heightened Def Con from 1.27271e-005 ++++++++++++++++++to 1.27281e-005
Heightened Def Con from 1.27281e-005 ++++++++++++++++++to 1.27291e-005
Heightened Def Con from 1.27291e-005 ++++++++++++++++++to 1.27301e-005
Heightened Def Con from 1.27301e-005 ++++++++++++++++++to 1.27311e-005
Heightened Def Con from 1.27311e-005 ++++++++++++++++++to 1.27321e-005
Heightened Def Con from 1.27321e-005 ++++++++++++++++++to 1.27331e-005
Heightened Def Con from 1.27331e-005 ++++++++++++++++++to 1.27341e-005
Heightened Def Con from 1.27341e-005 ++++++++++++++++++to 1.27351e-005
Heightened Def Con from 1.27351e-005 ++++++++++++++++++to 1.27361e-005
Heightened Def Con from 1.27361e-005 ++++++++++++++++++to 1.27371e-005
Heightened Def Con from 1.27371e-005 ++++++++++++++++++to 1.27381e-005
Heightened Def Con from 1.27381e-005 ++++++++++++++++++to 1.27391e-005
Heightened Def Con from 1.27391e-005 ++++++++++++++++++to 1.27401e-005
Heightened Def Con from 1.27401e-005 ++++++++++++++++++to 1.27411e-005
Heightened Def Con from 1.27411e-005 ++++++++++++++++++to 1.27421e-005
Heightened Def Con from 1.27421e-005 ++++++++++++++++++to 1.27431e-005
Heightened Def Con from 1.27431e-005 ++++++++++++++++++to 1.27441e-005
Heightened Def Con from 1.27441e-005 ++++++++++++++++++to 1.27451e-005
Heightened Def Con from 1.27451e-005 ++++++++++++++++++to 1.27461e-005
Heightened Def Con from 1.27461e-005 ++++++++++++++++++to 1.27471e-005
Heightened Def Con from 1.27471e-005 ++++++++++++++++++to 1.27481e-005
Heightened Def Con from 1.27481e-005 ++++++++++++++++++to 1.27491e-005
Heightened Def Con from 1.27491e-005 ++++++++++++++++++to 1.27501e-005
Heightened Def Con from 1.27501e-005 ++++++++++++++++++to 1.27511e-005
Heightened Def Con from 1.27511e-005 ++++++++++++++++++to 1.27521e-005
Heightened Def Con from 1.27521e-005 ++++++++++++++++++to 1.27531e-005
Heightened Def Con from 1.27531e-005 ++++++++++++++++++to 1.27541e-005
Heightened Def Con from 1.27541e-005 ++++++++++++++++++to 1.27551e-005
Heightened Def Con from 1.27551e-005 ++++++++++++++++++to 1.27561e-005
Heightened Def Con from 1.27561e-005 ++++++++++++++++++to 1.27571e-005
Heightened Def Con from 1.27571e-005 ++++++++++++++++++to 1.27581e-005
Heightened Def Con from 1.27581e-005 ++++++++++++++++++to 1.27591e-005
Heightened Def Con from 1.27591e-005 ++++++++++++++++++to 1.27601e-005
Heightened Def Con from 1.27601e-005 ++++++++++++++++++to 1.27611e-005
Heightened Def Con from 1.27611e-005 ++++++++++++++++++to 1.27621e-005
Heightened Def Con from 1.27621e-005 ++++++++++++++++++to 1.27631e-005
Heightened Def Con from 1.27631e-005 ++++++++++++++++++to 1.27641e-005
Heightened Def Con from 1.27641e-005 ++++++++++++++++++to 1.27651e-005
Heightened Def Con from 1.27651e-005 ++++++++++++++++++to 1.27661e-005
Heightened Def Con from 1.27661e-005 ++++++++++++++++++to 1.27671e-005
Heightened Def Con from 1.27671e-005 ++++++++++++++++++to 1.27681e-005
Heightened Def Con from 1.27681e-005 ++++++++++++++++++to 1.27691e-005
Heightened Def Con from 1.27691e-005 ++++++++++++++++++to 1.27701e-005
Heightened Def Con from 1.27701e-005 ++++++++++++++++++to 1.27711e-005
Heightened Def Con from 1.27711e-005 ++++++++++++++++++to 1.27721e-005
Heightened Def Con from 1.27721e-005 ++++++++++++++++++to 1.27731e-005
Heightened Def Con from 1.27731e-005 ++++++++++++++++++to 1.27741e-005
Heightened Def Con from 1.27741e-005 ++++++++++++++++++to 1.27751e-005
Heightened Def Con from 1.27751e-005 ++++++++++++++++++to 1.27761e-005
Heightened Def Con from 1.27761e-005 ++++++++++++++++++to 1.27771e-005
Heightened Def Con from 1.27771e-005 ++++++++++++++++++to 1.27781e-005
Heightened Def Con from 1.27781e-005 ++++++++++++++++++to 1.27791e-005
Heightened Def Con from 1.27791e-005 ++++++++++++++++++to 1.27801e-005
Heightened Def Con from 1.27801e-005 ++++++++++++++++++to 1.27811e-005
Heightened Def Con from 1.27811e-005 ++++++++++++++++++to 1.27821e-005
Heightened Def Con from 1.27821e-005 ++++++++++++++++++to 1.27831e-005
Heightened Def Con from 1.27831e-005 ++++++++++++++++++to 1.27841e-005
Heightened Def Con from 1.27841e-005 ++++++++++++++++++to 1.27851e-005
Heightened Def Con from 1.27851e-005 ++++++++++++++++++to 1.27861e-005
Heightened Def Con from 1.27861e-005 ++++++++++++++++++to 1.27871e-005
Heightened Def Con from 1.27871e-005 ++++++++++++++++++to 1.27881e-005
Heightened Def Con from 1.27881e-005 ++++++++++++++++++to 1.27891e-005
Heightened Def Con from 1.27891e-005 ++++++++++++++++++to 1.27901e-005
Heightened Def Con from 1.27901e-005 ++++++++++++++++++to 1.27911e-005
Heightened Def Con from 1.27911e-005 ++++++++++++++++++to 1.27921e-005
Heightened Def Con from 1.27921e-005 ++++++++++++++++++to 1.27931e-005
Heightened Def Con from 1.27931e-005 ++++++++++++++++++to 1.27941e-005
Heightened Def Con from 1.27941e-005 ++++++++++++++++++to 1.27951e-005
Heightened Def Con from 1.27951e-005 ++++++++++++++++++to 1.27961e-005
Heightened Def Con from 1.27961e-005 ++++++++++++++++++to 1.27971e-005
Heightened Def Con from 1.27971e-005 ++++++++++++++++++to 1.27981e-005
Heightened Def Con from 1.27981e-005 ++++++++++++++++++to 1.27991e-005
Heightened Def Con from 1.27991e-005 ++++++++++++++++++to 1.28001e-005
Heightened Def Con from 1.28001e-005 ++++++++++++++++++to 1.28011e-005
Heightened Def Con from 1.28011e-005 ++++++++++++++++++to 1.28021e-005
Heightened Def Con from 1.28021e-005 ++++++++++++++++++to 1.28031e-005
Heightened Def Con from 1.28031e-005 ++++++++++++++++++to 1.28041e-005
Heightened Def Con from 1.28041e-005 ++++++++++++++++++to 1.28051e-005
Heightened Def Con from 1.28051e-005 ++++++++++++++++++to 1.28061e-005
Heightened Def Con from 1.28061e-005 ++++++++++++++++++to 1.28071e-005
Heightened Def Con from 1.28071e-005 ++++++++++++++++++to 1.28081e-005
Heightened Def Con from 1.28081e-005 ++++++++++++++++++to 1.28091e-005
Heightened Def Con from 1.28091e-005 ++++++++++++++++++to 1.28101e-005
Heightened Def Con from 1.28101e-005 ++++++++++++++++++to 1.28111e-005
Heightened Def Con from 1.28111e-005 ++++++++++++++++++to 1.28121e-005
Heightened Def Con from 1.28121e-005 ++++++++++++++++++to 1.28131e-005
Heightened Def Con from 1.28131e-005 ++++++++++++++++++to 1.28141e-005
Heightened Def Con from 1.28141e-005 ++++++++++++++++++to 1.28151e-005
Heightened Def Con from 1.28151e-005 ++++++++++++++++++to 1.28161e-005
Heightened Def Con from 1.28161e-005 ++++++++++++++++++to 1.28171e-005
Heightened Def Con from 1.28171e-005 ++++++++++++++++++to 1.28181e-005
Heightened Def Con from 1.28181e-005 ++++++++++++++++++to 1.28191e-005
Heightened Def Con from 1.28191e-005 ++++++++++++++++++to 1.28201e-005
Heightened Def Con from 1.28201e-005 ++++++++++++++++++to 1.28211e-005
Heightened Def Con from 1.28211e-005 ++++++++++++++++++to 1.28221e-005
Heightened Def Con from 1.28221e-005 ++++++++++++++++++to 1.28231e-005
Heightened Def Con from 1.28231e-005 ++++++++++++++++++to 1.28241e-005
Heightened Def Con from 1.28241e-005 ++++++++++++++++++to 1.28251e-005
Heightened Def Con from 1.28251e-005 ++++++++++++++++++to 1.28261e-005
Heightened Def Con from 1.28261e-005 ++++++++++++++++++to 1.28271e-005
Heightened Def Con from 1.28271e-005 ++++++++++++++++++to 1.28281e-005
Heightened Def Con from 1.28281e-005 ++++++++++++++++++to 1.28291e-005
Heightened Def Con from 1.28291e-005 ++++++++++++++++++to 1.28301e-005
Heightened Def Con from 1.28301e-005 ++++++++++++++++++to 1.28311e-005
Heightened Def Con from 1.28311e-005 ++++++++++++++++++to 1.28321e-005
Heightened Def Con from 1.28321e-005 ++++++++++++++++++to 1.28331e-005
Heightened Def Con from 1.28331e-005 ++++++++++++++++++to 1.28341e-005
Heightened Def Con from 1.28341e-005 ++++++++++++++++++to 1.28351e-005
Heightened Def Con from 1.28351e-005 ++++++++++++++++++to 1.28361e-005
Heightened Def Con from 1.28361e-005 ++++++++++++++++++to 1.28371e-005
Heightened Def Con from 1.28371e-005 ++++++++++++++++++to 1.28381e-005
Heightened Def Con from 1.28381e-005 ++++++++++++++++++to 1.28391e-005
Heightened Def Con from 1.28391e-005 ++++++++++++++++++to 1.28401e-005
Heightened Def Con from 1.28401e-005 ++++++++++++++++++to 1.28411e-005
Heightened Def Con from 1.28411e-005 ++++++++++++++++++to 1.28421e-005
Heightened Def Con from 1.28421e-005 ++++++++++++++++++to 1.28431e-005
Heightened Def Con from 1.28431e-005 ++++++++++++++++++to 1.28441e-005
Heightened Def Con from 1.28441e-005 ++++++++++++++++++to 1.28451e-005
Heightened Def Con from 1.28451e-005 ++++++++++++++++++to 1.28461e-005
Heightened Def Con from 1.28461e-005 ++++++++++++++++++to 1.28471e-005
Heightened Def Con from 1.28471e-005 ++++++++++++++++++to 1.28481e-005
Heightened Def Con from 1.28481e-005 ++++++++++++++++++to 1.28491e-005
Heightened Def Con from 1.28491e-005 ++++++++++++++++++to 1.28501e-005
Heightened Def Con from 1.28501e-005 ++++++++++++++++++to 1.28511e-005
Heightened Def Con from 1.28511e-005 ++++++++++++++++++to 1.28521e-005
Heightened Def Con from 1.28521e-005 ++++++++++++++++++to 1.28531e-005
Heightened Def Con from 1.28531e-005 ++++++++++++++++++to 1.28541e-005
Heightened Def Con from 1.28541e-005 ++++++++++++++++++to 1.28551e-005
Heightened Def Con from 1.28551e-005 ++++++++++++++++++to 1.28561e-005
Heightened Def Con from 1.28561e-005 ++++++++++++++++++to 1.28571e-005
Heightened Def Con from 1.28571e-005 ++++++++++++++++++to 1.28581e-005
Heightened Def Con from 1.28581e-005 ++++++++++++++++++to 1.28591e-005
Heightened Def Con from 1.28591e-005 ++++++++++++++++++to 1.28601e-005
Heightened Def Con from 1.28601e-005 ++++++++++++++++++to 1.28611e-005
Heightened Def Con from 1.28611e-005 ++++++++++++++++++to 1.28621e-005
Heightened Def Con from 1.28621e-005 ++++++++++++++++++to 1.28631e-005
Heightened Def Con from 1.28631e-005 ++++++++++++++++++to 1.28641e-005
Heightened Def Con from 1.28641e-005 ++++++++++++++++++to 1.28651e-005
Heightened Def Con from 1.28651e-005 ++++++++++++++++++to 1.28661e-005
Heightened Def Con from 1.28661e-005 ++++++++++++++++++to 1.28671e-005
Heightened Def Con from 1.28671e-005 ++++++++++++++++++to 1.28681e-005
Heightened Def Con from 1.28681e-005 ++++++++++++++++++to 1.28691e-005
Heightened Def Con from 1.28691e-005 ++++++++++++++++++to 1.28701e-005
Heightened Def Con from 1.28701e-005 ++++++++++++++++++to 1.28711e-005
Heightened Def Con from 1.28711e-005 ++++++++++++++++++to 1.28721e-005
Heightened Def Con from 1.28721e-005 ++++++++++++++++++to 1.28731e-005
Heightened Def Con from 1.28731e-005 ++++++++++++++++++to 1.28741e-005
Heightened Def Con from 1.28741e-005 ++++++++++++++++++to 1.28751e-005
Heightened Def Con from 1.28751e-005 ++++++++++++++++++to 1.28761e-005
Heightened Def Con from 1.28761e-005 ++++++++++++++++++to 1.28771e-005
Heightened Def Con from 1.28771e-005 ++++++++++++++++++to 1.28781e-005
Heightened Def Con from 1.28781e-005 ++++++++++++++++++to 1.28791e-005
Heightened Def Con from 1.28791e-005 ++++++++++++++++++to 1.28801e-005
Heightened Def Con from 1.28801e-005 ++++++++++++++++++to 1.28811e-005
Heightened Def Con from 1.28811e-005 ++++++++++++++++++to 1.28821e-005
Heightened Def Con from 1.28821e-005 ++++++++++++++++++to 1.28831e-005
Heightened Def Con from 1.28831e-005 ++++++++++++++++++to 1.28841e-005
Heightened Def Con from 1.28841e-005 ++++++++++++++++++to 1.28851e-005
Heightened Def Con from 1.28851e-005 ++++++++++++++++++to 1.28861e-005
Heightened Def Con from 1.28861e-005 ++++++++++++++++++to 1.28871e-005
Heightened Def Con from 1.28871e-005 ++++++++++++++++++to 1.28881e-005
Heightened Def Con from 1.28881e-005 ++++++++++++++++++to 1.28891e-005
Heightened Def Con from 1.28891e-005 ++++++++++++++++++to 1.28901e-005
Heightened Def Con from 1.28901e-005 ++++++++++++++++++to 1.28911e-005
Heightened Def Con from 1.28911e-005 ++++++++++++++++++to 1.28921e-005
Heightened Def Con from 1.28921e-005 ++++++++++++++++++to 1.28931e-005
Heightened Def Con from 1.28931e-005 ++++++++++++++++++to 1.28941e-005
Heightened Def Con from 1.28941e-005 ++++++++++++++++++to 1.28951e-005
Heightened Def Con from 1.28951e-005 ++++++++++++++++++to 1.28961e-005
Heightened Def Con from 1.28961e-005 ++++++++++++++++++to 1.28971e-005
Heightened Def Con from 1.28971e-005 ++++++++++++++++++to 1.28981e-005
Heightened Def Con from 1.28981e-005 ++++++++++++++++++to 1.28991e-005
Heightened Def Con from 1.28991e-005 ++++++++++++++++++to 1.29001e-005
Heightened Def Con from 1.29001e-005 ++++++++++++++++++to 1.29011e-005
Heightened Def Con from 1.29011e-005 ++++++++++++++++++to 1.29021e-005
Heightened Def Con from 1.29021e-005 ++++++++++++++++++to 1.29031e-005
Heightened Def Con from 1.29031e-005 ++++++++++++++++++to 1.29041e-005
Heightened Def Con from 1.29041e-005 ++++++++++++++++++to 1.29051e-005
Heightened Def Con from 1.29051e-005 ++++++++++++++++++to 1.29061e-005
Heightened Def Con from 1.29061e-005 ++++++++++++++++++to 1.29071e-005
Heightened Def Con from 1.29071e-005 ++++++++++++++++++to 1.29081e-005
Heightened Def Con from 1.29081e-005 ++++++++++++++++++to 1.29091e-005
Heightened Def Con from 1.29091e-005 ++++++++++++++++++to 1.29101e-005
Heightened Def Con from 1.29101e-005 ++++++++++++++++++to 1.29111e-005
Heightened Def Con from 1.29111e-005 ++++++++++++++++++to 1.29121e-005
Heightened Def Con from 1.29121e-005 ++++++++++++++++++to 1.29131e-005
Heightened Def Con from 1.29131e-005 ++++++++++++++++++to 1.29141e-005
Heightened Def Con from 1.29141e-005 ++++++++++++++++++to 1.29151e-005
Heightened Def Con from 1.29151e-005 ++++++++++++++++++to 1.29161e-005
Heightened Def Con from 1.29161e-005 ++++++++++++++++++to 1.29171e-005
Heightened Def Con from 1.29171e-005 ++++++++++++++++++to 1.29181e-005
Heightened Def Con from 1.29181e-005 ++++++++++++++++++to 1.29191e-005
Heightened Def Con from 1.29191e-005 ++++++++++++++++++to 1.29201e-005
Heightened Def Con from 1.29201e-005 ++++++++++++++++++to 1.29211e-005
Heightened Def Con from 1.29211e-005 ++++++++++++++++++to 1.29221e-005
Heightened Def Con from 1.29221e-005 ++++++++++++++++++to 1.29231e-005
Heightened Def Con from 1.29231e-005 ++++++++++++++++++to 1.29241e-005
Heightened Def Con from 1.29241e-005 ++++++++++++++++++to 1.29251e-005
Heightened Def Con from 1.29251e-005 ++++++++++++++++++to 1.29261e-005
Heightened Def Con from 1.29261e-005 ++++++++++++++++++to 1.29271e-005
Heightened Def Con from 1.29271e-005 ++++++++++++++++++to 1.29281e-005
Heightened Def Con from 1.29281e-005 ++++++++++++++++++to 1.29291e-005
Heightened Def Con from 1.29291e-005 ++++++++++++++++++to 1.29301e-005
Heightened Def Con from 1.29301e-005 ++++++++++++++++++to 1.29311e-005
Heightened Def Con from 1.29311e-005 ++++++++++++++++++to 1.29321e-005
Heightened Def Con from 1.29321e-005 ++++++++++++++++++to 1.29331e-005
Heightened Def Con from 1.29331e-005 ++++++++++++++++++to 1.29341e-005
Heightened Def Con from 1.29341e-005 ++++++++++++++++++to 1.29351e-005
Heightened Def Con from 1.29351e-005 ++++++++++++++++++to 1.29361e-005
Heightened Def Con from 1.29361e-005 ++++++++++++++++++to 1.29371e-005
Heightened Def Con from 1.29371e-005 ++++++++++++++++++to 1.29381e-005
Heightened Def Con from 1.29381e-005 ++++++++++++++++++to 1.29391e-005
Heightened Def Con from 1.29391e-005 ++++++++++++++++++to 1.29401e-005
Heightened Def Con from 1.29401e-005 ++++++++++++++++++to 1.29411e-005
Heightened Def Con from 1.29411e-005 ++++++++++++++++++to 1.29421e-005
Heightened Def Con from 1.29421e-005 ++++++++++++++++++to 1.29431e-005
Heightened Def Con from 1.29431e-005 ++++++++++++++++++to 1.29441e-005
Heightened Def Con from 1.29441e-005 ++++++++++++++++++to 1.29451e-005
Heightened Def Con from 1.29451e-005 ++++++++++++++++++to 1.29461e-005
Heightened Def Con from 1.29461e-005 ++++++++++++++++++to 1.29471e-005
Heightened Def Con from 1.29471e-005 ++++++++++++++++++to 1.29481e-005
Heightened Def Con from 1.29481e-005 ++++++++++++++++++to 1.29491e-005
Heightened Def Con from 1.29491e-005 ++++++++++++++++++to 1.29501e-005
Heightened Def Con from 1.29501e-005 ++++++++++++++++++to 1.29511e-005
Heightened Def Con from 1.29511e-005 ++++++++++++++++++to 1.29521e-005
Heightened Def Con from 1.29521e-005 ++++++++++++++++++to 1.29531e-005
Heightened Def Con from 1.29531e-005 ++++++++++++++++++to 1.29541e-005
Heightened Def Con from 1.29541e-005 ++++++++++++++++++to 1.29551e-005
Heightened Def Con from 1.29551e-005 ++++++++++++++++++to 1.29561e-005
Heightened Def Con from 1.29561e-005 ++++++++++++++++++to 1.29571e-005
Heightened Def Con from 1.29571e-005 ++++++++++++++++++to 1.29581e-005
Heightened Def Con from 1.29581e-005 ++++++++++++++++++to 1.29591e-005
Heightened Def Con from 1.29591e-005 ++++++++++++++++++to 1.29601e-005
Heightened Def Con from 1.29601e-005 ++++++++++++++++++to 1.29611e-005
Heightened Def Con from 1.29611e-005 ++++++++++++++++++to 1.29621e-005
Heightened Def Con from 1.29621e-005 ++++++++++++++++++to 1.29631e-005
Heightened Def Con from 1.29631e-005 ++++++++++++++++++to 1.29641e-005
Heightened Def Con from 1.29641e-005 ++++++++++++++++++to 1.29651e-005
Heightened Def Con from 1.29651e-005 ++++++++++++++++++to 1.29661e-005
Heightened Def Con from 1.29661e-005 ++++++++++++++++++to 1.29671e-005
Heightened Def Con from 1.29671e-005 ++++++++++++++++++to 1.29681e-005
Heightened Def Con from 1.29681e-005 ++++++++++++++++++to 1.29691e-005
Heightened Def Con from 1.29691e-005 ++++++++++++++++++to 1.29701e-005
Heightened Def Con from 1.29701e-005 ++++++++++++++++++to 1.29711e-005
Heightened Def Con from 1.29711e-005 ++++++++++++++++++to 1.29721e-005
Heightened Def Con from 1.29721e-005 ++++++++++++++++++to 1.29731e-005
Heightened Def Con from 1.29731e-005 ++++++++++++++++++to 1.29741e-005
Heightened Def Con from 1.29741e-005 ++++++++++++++++++to 1.29751e-005
Heightened Def Con from 1.29751e-005 ++++++++++++++++++to 1.29761e-005
Heightened Def Con from 1.29761e-005 ++++++++++++++++++to 1.29771e-005
Heightened Def Con from 1.29771e-005 ++++++++++++++++++to 1.29781e-005
Heightened Def Con from 1.29781e-005 ++++++++++++++++++to 1.29791e-005
Heightened Def Con from 1.29791e-005 ++++++++++++++++++to 1.29801e-005
Heightened Def Con from 1.29801e-005 ++++++++++++++++++to 1.29811e-005
Heightened Def Con from 1.29811e-005 ++++++++++++++++++to 1.29821e-005
Heightened Def Con from 1.29821e-005 ++++++++++++++++++to 1.29831e-005
Heightened Def Con from 1.29831e-005 ++++++++++++++++++to 1.29841e-005
Heightened Def Con from 1.29841e-005 ++++++++++++++++++to 1.29851e-005
Heightened Def Con from 1.29851e-005 ++++++++++++++++++to 1.29861e-005
Heightened Def Con from 1.29861e-005 ++++++++++++++++++to 1.29871e-005
Heightened Def Con from 1.29871e-005 ++++++++++++++++++to 1.29881e-005
Heightened Def Con from 1.29881e-005 ++++++++++++++++++to 1.29891e-005
Heightened Def Con from 1.29891e-005 ++++++++++++++++++to 1.29901e-005
Heightened Def Con from 1.29901e-005 ++++++++++++++++++to 1.29911e-005
Heightened Def Con from 1.29911e-005 ++++++++++++++++++to 1.29921e-005
Heightened Def Con from 1.29921e-005 ++++++++++++++++++to 1.29931e-005
Heightened Def Con from 1.29931e-005 ++++++++++++++++++to 1.29941e-005
Heightened Def Con from 1.29941e-005 ++++++++++++++++++to 1.29951e-005
Heightened Def Con from 1.29951e-005 ++++++++++++++++++to 1.29961e-005
Heightened Def Con from 1.29961e-005 ++++++++++++++++++to 1.29971e-005
Heightened Def Con from 1.29971e-005 ++++++++++++++++++to 1.29981e-005
Heightened Def Con from 1.29981e-005 ++++++++++++++++++to 1.29991e-005
Heightened Def Con from 1.29991e-005 ++++++++++++++++++to 1.30001e-005
Heightened Def Con from 1.30001e-005 ++++++++++++++++++to 1.30011e-005
Heightened Def Con from 1.30011e-005 ++++++++++++++++++to 1.30021e-005
Heightened Def Con from 1.30021e-005 ++++++++++++++++++to 1.30031e-005
Heightened Def Con from 1.30031e-005 ++++++++++++++++++to 1.30041e-005
Heightened Def Con from 1.30041e-005 ++++++++++++++++++to 1.30051e-005
Heightened Def Con from 1.30051e-005 ++++++++++++++++++to 1.30061e-005
Heightened Def Con from 1.30061e-005 ++++++++++++++++++to 1.30071e-005
Heightened Def Con from 1.30071e-005 ++++++++++++++++++to 1.30081e-005
Heightened Def Con from 1.30081e-005 ++++++++++++++++++to 1.30091e-005
Heightened Def Con from 1.30091e-005 ++++++++++++++++++to 1.30101e-005
Heightened Def Con from 1.30101e-005 ++++++++++++++++++to 1.30111e-005
Heightened Def Con from 1.30111e-005 ++++++++++++++++++to 1.30121e-005
Heightened Def Con from 1.30121e-005 ++++++++++++++++++to 1.30131e-005
Heightened Def Con from 1.30131e-005 ++++++++++++++++++to 1.30141e-005
Heightened Def Con from 1.30141e-005 ++++++++++++++++++to 1.30151e-005
Heightened Def Con from 1.30151e-005 ++++++++++++++++++to 1.30161e-005
Heightened Def Con from 1.30161e-005 ++++++++++++++++++to 1.30171e-005
Heightened Def Con from 1.30171e-005 ++++++++++++++++++to 1.30181e-005
Heightened Def Con from 1.30181e-005 ++++++++++++++++++to 1.30191e-005
Heightened Def Con from 1.30191e-005 ++++++++++++++++++to 1.30201e-005
Heightened Def Con from 1.30201e-005 ++++++++++++++++++to 1.30211e-005
Heightened Def Con from 1.30211e-005 ++++++++++++++++++to 1.30221e-005
Heightened Def Con from 1.30221e-005 ++++++++++++++++++to 1.30231e-005
Heightened Def Con from 1.30231e-005 ++++++++++++++++++to 1.30241e-005
Heightened Def Con from 1.30241e-005 ++++++++++++++++++to 1.30251e-005
Heightened Def Con from 1.30251e-005 ++++++++++++++++++to 1.30261e-005
Heightened Def Con from 1.30261e-005 ++++++++++++++++++to 1.30271e-005
Heightened Def Con from 1.30271e-005 ++++++++++++++++++to 1.30281e-005
Heightened Def Con from 1.30281e-005 ++++++++++++++++++to 1.30291e-005
Heightened Def Con from 1.30291e-005 ++++++++++++++++++to 1.30301e-005
Heightened Def Con from 1.30301e-005 ++++++++++++++++++to 1.30311e-005
Heightened Def Con from 1.30311e-005 ++++++++++++++++++to 1.30321e-005
Heightened Def Con from 1.30321e-005 ++++++++++++++++++to 1.30331e-005
Heightened Def Con from 1.30331e-005 ++++++++++++++++++to 1.30341e-005
Heightened Def Con from 1.30341e-005 ++++++++++++++++++to 1.30351e-005
Heightened Def Con from 1.30351e-005 ++++++++++++++++++to 1.30361e-005
Heightened Def Con from 1.30361e-005 ++++++++++++++++++to 1.30371e-005
Heightened Def Con from 1.30371e-005 ++++++++++++++++++to 1.30381e-005
Heightened Def Con from 1.30381e-005 ++++++++++++++++++to 1.30391e-005
Heightened Def Con from 1.30391e-005 ++++++++++++++++++to 1.30401e-005
Heightened Def Con from 1.30401e-005 ++++++++++++++++++to 1.30411e-005
Heightened Def Con from 1.30411e-005 ++++++++++++++++++to 1.30421e-005
Heightened Def Con from 1.30421e-005 ++++++++++++++++++to 1.30431e-005
Heightened Def Con from 1.30431e-005 ++++++++++++++++++to 1.30441e-005
Heightened Def Con from 1.30441e-005 ++++++++++++++++++to 1.30451e-005
Heightened Def Con from 1.30451e-005 ++++++++++++++++++to 1.30461e-005
Heightened Def Con from 1.30461e-005 ++++++++++++++++++to 1.30471e-005
Heightened Def Con from 1.30471e-005 ++++++++++++++++++to 1.30481e-005
Heightened Def Con from 1.30481e-005 ++++++++++++++++++to 1.30491e-005
Heightened Def Con from 1.30491e-005 ++++++++++++++++++to 1.30501e-005
Heightened Def Con from 1.30501e-005 ++++++++++++++++++to 1.30511e-005
Heightened Def Con from 1.30511e-005 ++++++++++++++++++to 1.30521e-005
Heightened Def Con from 1.30521e-005 ++++++++++++++++++to 1.30531e-005
Heightened Def Con from 1.30531e-005 ++++++++++++++++++to 1.30541e-005
Heightened Def Con from 1.30541e-005 ++++++++++++++++++to 1.30551e-005
Heightened Def Con from 1.30551e-005 ++++++++++++++++++to 1.30561e-005
Heightened Def Con from 1.30561e-005 ++++++++++++++++++to 1.30571e-005
Heightened Def Con from 1.30571e-005 ++++++++++++++++++to 1.30581e-005
Heightened Def Con from 1.30581e-005 ++++++++++++++++++to 1.30591e-005
Heightened Def Con from 1.30591e-005 ++++++++++++++++++to 1.30601e-005
Heightened Def Con from 1.30601e-005 ++++++++++++++++++to 1.30611e-005
Heightened Def Con from 1.30611e-005 ++++++++++++++++++to 1.30621e-005
Heightened Def Con from 1.30621e-005 ++++++++++++++++++to 1.30631e-005
Heightened Def Con from 1.30631e-005 ++++++++++++++++++to 1.30641e-005
Heightened Def Con from 1.30641e-005 ++++++++++++++++++to 1.30651e-005
Heightened Def Con from 1.30651e-005 ++++++++++++++++++to 1.30661e-005
Heightened Def Con from 1.30661e-005 ++++++++++++++++++to 1.30671e-005
Heightened Def Con from 1.30671e-005 ++++++++++++++++++to 1.30681e-005
Heightened Def Con from 1.30681e-005 ++++++++++++++++++to 1.30691e-005
Heightened Def Con from 1.30691e-005 ++++++++++++++++++to 1.30701e-005
Heightened Def Con from 1.30701e-005 ++++++++++++++++++to 1.30711e-005
Heightened Def Con from 1.30711e-005 ++++++++++++++++++to 1.30721e-005
Heightened Def Con from 1.30721e-005 ++++++++++++++++++to 1.30731e-005
Heightened Def Con from 1.30731e-005 ++++++++++++++++++to 1.30741e-005
Heightened Def Con from 1.30741e-005 ++++++++++++++++++to 1.30751e-005
Heightened Def Con from 1.30751e-005 ++++++++++++++++++to 1.30761e-005
Heightened Def Con from 1.30761e-005 ++++++++++++++++++to 1.30771e-005
Heightened Def Con from 1.30771e-005 ++++++++++++++++++to 1.30781e-005
Heightened Def Con from 1.30781e-005 ++++++++++++++++++to 1.30791e-005
Heightened Def Con from 1.30791e-005 ++++++++++++++++++to 1.30801e-005
Heightened Def Con from 1.30801e-005 ++++++++++++++++++to 1.30811e-005
Heightened Def Con from 1.30811e-005 ++++++++++++++++++to 1.30821e-005
Heightened Def Con from 1.30821e-005 ++++++++++++++++++to 1.30831e-005
Heightened Def Con from 1.30831e-005 ++++++++++++++++++to 1.30841e-005
Heightened Def Con from 1.30841e-005 ++++++++++++++++++to 1.30851e-005
[...]
Heightened Def Con from 1.32021e-005 ++++++++++++++++++to 1.32031e-005
Heightened Def Con from 1.32031e-005 ++++++++++++++++++to 1.32041e-005
Heightened Def Con from 1.32041e-005 ++++++++++++++++++to 1.32051e-005
Heightened Def Con from 1.32051e-005 ++++++++++++++++++to 1.32061e-005
Heightened Def Con from 1.32061e-005 ++++++++++++++++++to 1.32071e-005
Heightened Def Con from 1.32071e-005 ++++++++++++++++++to 1.32081e-005
Heightened Def Con from 1.32081e-005 ++++++++++++++++++to 1.32091e-005
Heightened Def Con from 1.32091e-005 ++++++++++++++++++to 1.32101e-005
Heightened Def Con from 1.32101e-005 ++++++++++++++++++to 1.32111e-005
Heightened Def Con from 1.32111e-005 ++++++++++++++++++to 1.32121e-005
Heightened Def Con from 1.32121e-005 ++++++++++++++++++to 1.32131e-005
Heightened Def Con from 1.32131e-005 ++++++++++++++++++to 1.32141e-005
Heightened Def Con from 1.32141e-005 ++++++++++++++++++to 1.32151e-005
Heightened Def Con from 1.32151e-005 ++++++++++++++++++to 1.32161e-005
Heightened Def Con from 1.32161e-005 ++++++++++++++++++to 1.32171e-005
Heightened Def Con from 1.32171e-005 ++++++++++++++++++to 1.32181e-005
Heightened Def Con from 1.32181e-005 ++++++++++++++++++to 1.32191e-005
Heightened Def Con from 1.32191e-005 ++++++++++++++++++to 1.32201e-005
Heightened Def Con from 1.32201e-005 ++++++++++++++++++to 1.32211e-005
Heightened Def Con from 1.32211e-005 ++++++++++++++++++to 1.32221e-005
Heightened Def Con from 1.32221e-005 ++++++++++++++++++to 1.32231e-005
Heightened Def Con from 1.32231e-005 ++++++++++++++++++to 1.32241e-005
Heightened Def Con from 1.32241e-005 ++++++++++++++++++to 1.32251e-005
Heightened Def Con from 1.32251e-005 ++++++++++++++++++to 1.32261e-005
Heightened Def Con from 1.32261e-005 ++++++++++++++++++to 1.32271e-005
Heightened Def Con from 1.32271e-005 ++++++++++++++++++to 1.32281e-005
Heightened Def Con from 1.32281e-005 ++++++++++++++++++to 1.32291e-005
Heightened Def Con from 1.32291e-005 ++++++++++++++++++to 1.32301e-005
Heightened Def Con from 1.32301e-005 ++++++++++++++++++to 1.32311e-005
Heightened Def Con from 1.32311e-005 ++++++++++++++++++to 1.32321e-005
Heightened Def Con from 1.32321e-005 ++++++++++++++++++to 1.32331e-005
Heightened Def Con from 1.32331e-005 ++++++++++++++++++to 1.32341e-005
Heightened Def Con from 1.32341e-005 ++++++++++++++++++to 1.32351e-005
Heightened Def Con from 1.32351e-005 ++++++++++++++++++to 1.32361e-005
Heightened Def Con from 1.32361e-005 ++++++++++++++++++to 1.32371e-005
Heightened Def Con from 1.32371e-005 ++++++++++++++++++to 1.32381e-005
Heightened Def Con from 1.32381e-005 ++++++++++++++++++to 1.32391e-005
Heightened Def Con from 1.32391e-005 ++++++++++++++++++to 1.32401e-005
Heightened Def Con from 1.32401e-005 ++++++++++++++++++to 1.32411e-005
Heightened Def Con from 1.32411e-005 ++++++++++++++++++to 1.32421e-005
Heightened Def Con from 1.32421e-005 ++++++++++++++++++to 1.32431e-005
Heightened Def Con from 1.32431e-005 ++++++++++++++++++to 1.32441e-005
Heightened Def Con from 1.32441e-005 ++++++++++++++++++to 1.32451e-005
Heightened Def Con from 1.32451e-005 ++++++++++++++++++to 1.32461e-005
Heightened Def Con from 1.32461e-005 ++++++++++++++++++to 1.32471e-005
Heightened Def Con from 1.32471e-005 ++++++++++++++++++to 1.32481e-005
Heightened Def Con from 1.32481e-005 ++++++++++++++++++to 1.32491e-005
Heightened Def Con from 1.32491e-005 ++++++++++++++++++to 1.32501e-005
Heightened Def Con from 1.32501e-005 ++++++++++++++++++to 1.32511e-005
Heightened Def Con from 1.32511e-005 ++++++++++++++++++to 1.32521e-005
Heightened Def Con from 1.32521e-005 ++++++++++++++++++to 1.32531e-005
Heightened Def Con from 1.32531e-005 ++++++++++++++++++to 1.32541e-005
Heightened Def Con from 1.32541e-005 ++++++++++++++++++to 1.32551e-005
Heightened Def Con from 1.32551e-005 ++++++++++++++++++to 1.32561e-005
Heightened Def Con from 1.32561e-005 ++++++++++++++++++to 1.32571e-005
Heightened Def Con from 1.32571e-005 ++++++++++++++++++to 1.32581e-005
Heightened Def Con from 1.32581e-005 ++++++++++++++++++to 1.32591e-005
Heightened Def Con from 1.32591e-005 ++++++++++++++++++to 1.32601e-005
Heightened Def Con from 1.32601e-005 ++++++++++++++++++to 1.32611e-005
Heightened Def Con from 1.32611e-005 ++++++++++++++++++to 1.32621e-005
Heightened Def Con from 1.32621e-005 ++++++++++++++++++to 1.32631e-005
Heightened Def Con from 1.32631e-005 ++++++++++++++++++to 1.32641e-005
Heightened Def Con from 1.32641e-005 ++++++++++++++++++to 1.32651e-005
Heightened Def Con from 1.32651e-005 ++++++++++++++++++to 1.32661e-005
Heightened Def Con from 1.32661e-005 ++++++++++++++++++to 1.32671e-005
Heightened Def Con from 1.32671e-005 ++++++++++++++++++to 1.32681e-005
Heightened Def Con from 1.32681e-005 ++++++++++++++++++to 1.32691e-005
Heightened Def Con from 1.32691e-005 ++++++++++++++++++to 1.32701e-005
Heightened Def Con from 1.32701e-005 ++++++++++++++++++to 1.32711e-005
Heightened Def Con from 1.32711e-005 ++++++++++++++++++to 1.32721e-005
Heightened Def Con from 1.32721e-005 ++++++++++++++++++to 1.32731e-005
Heightened Def Con from 1.32731e-005 ++++++++++++++++++to 1.32741e-005
Heightened Def Con from 1.32741e-005 ++++++++++++++++++to 1.32751e-005
Heightened Def Con from 1.32751e-005 ++++++++++++++++++to 1.32761e-005
Heightened Def Con from 1.32761e-005 ++++++++++++++++++to 1.32771e-005
Heightened Def Con from 1.32771e-005 ++++++++++++++++++to 1.32781e-005
Heightened Def Con from 1.32781e-005 ++++++++++++++++++to 1.32791e-005
Heightened Def Con from 1.32791e-005 ++++++++++++++++++to 1.32801e-005
Heightened Def Con from 1.32801e-005 ++++++++++++++++++to 1.32811e-005
Heightened Def Con from 1.32811e-005 ++++++++++++++++++to 1.32821e-005
Heightened Def Con from 1.32821e-005 ++++++++++++++++++to 1.32831e-005
Heightened Def Con from 1.32831e-005 ++++++++++++++++++to 1.32841e-005
Heightened Def Con from 1.32841e-005 ++++++++++++++++++to 1.32851e-005
Heightened Def Con from 1.32851e-005 ++++++++++++++++++to 1.32861e-005
Heightened Def Con from 1.32861e-005 ++++++++++++++++++to 1.32871e-005
Heightened Def Con from 1.32871e-005 ++++++++++++++++++to 1.32881e-005
Heightened Def Con from 1.32881e-005 ++++++++++++++++++to 1.32891e-005
Heightened Def Con from 1.32891e-005 ++++++++++++++++++to 1.32901e-005
Heightened Def Con from 1.32901e-005 ++++++++++++++++++to 1.32911e-005
Heightened Def Con from 1.32911e-005 ++++++++++++++++++to 1.32921e-005
Heightened Def Con from 1.32921e-005 ++++++++++++++++++to 1.32931e-005
Heightened Def Con from 1.32931e-005 ++++++++++++++++++to 1.32941e-005
Heightened Def Con from 1.32941e-005 ++++++++++++++++++to 1.32951e-005
Heightened Def Con from 1.32951e-005 ++++++++++++++++++to 1.32961e-005
Heightened Def Con from 1.32961e-005 ++++++++++++++++++to 1.32971e-005
Heightened Def Con from 1.32971e-005 ++++++++++++++++++to 1.32981e-005
Heightened Def Con from 1.32981e-005 ++++++++++++++++++to 1.32991e-005
Heightened Def Con from 1.32991e-005 ++++++++++++++++++to 1.33001e-005
Heightened Def Con from 1.33001e-005 ++++++++++++++++++to 1.33011e-005
Heightened Def Con from 1.33011e-005 ++++++++++++++++++to 1.33021e-005
Heightened Def Con from 1.33021e-005 ++++++++++++++++++to 1.33031e-005
Heightened Def Con from 1.33031e-005 ++++++++++++++++++to 1.33041e-005
Heightened Def Con from 1.33041e-005 ++++++++++++++++++to 1.33051e-005
Heightened Def Con from 1.33051e-005 ++++++++++++++++++to 1.33061e-005
Heightened Def Con from 1.33061e-005 ++++++++++++++++++to 1.33071e-005
Heightened Def Con from 1.33071e-005 ++++++++++++++++++to 1.33081e-005
Heightened Def Con from 1.33081e-005 ++++++++++++++++++to 1.33091e-005
Heightened Def Con from 1.33091e-005 ++++++++++++++++++to 1.33101e-005
Heightened Def Con from 1.33101e-005 ++++++++++++++++++to 1.33111e-005
Heightened Def Con from 1.33111e-005 ++++++++++++++++++to 1.33121e-005
Heightened Def Con from 1.33121e-005 ++++++++++++++++++to 1.33131e-005
Heightened Def Con from 1.33131e-005 ++++++++++++++++++to 1.33141e-005
Heightened Def Con from 1.33141e-005 ++++++++++++++++++to 1.33151e-005
Heightened Def Con from 1.33151e-005 ++++++++++++++++++to 1.33161e-005
Heightened Def Con from 1.33161e-005 ++++++++++++++++++to 1.33171e-005
Heightened Def Con from 1.33171e-005 ++++++++++++++++++to 1.33181e-005
Heightened Def Con from 1.33181e-005 ++++++++++++++++++to 1.33191e-005
Heightened Def Con from 1.33191e-005 ++++++++++++++++++to 1.33201e-005
Heightened Def Con from 1.33201e-005 ++++++++++++++++++to 1.33211e-005
Heightened Def Con from 1.33211e-005 ++++++++++++++++++to 1.33221e-005
Heightened Def Con from 1.33221e-005 ++++++++++++++++++to 1.33231e-005
Heightened Def Con from 1.33231e-005 ++++++++++++++++++to 1.33241e-005
Heightened Def Con from 1.33241e-005 ++++++++++++++++++to 1.33251e-005
Heightened Def Con from 1.33251e-005 ++++++++++++++++++to 1.33261e-005
Heightened Def Con from 1.33261e-005 ++++++++++++++++++to 1.33271e-005
Heightened Def Con from 1.33271e-005 ++++++++++++++++++to 1.33281e-005
Heightened Def Con from 1.33281e-005 ++++++++++++++++++to 1.33291e-005
Heightened Def Con from 1.33291e-005 ++++++++++++++++++to 1.33301e-005
Heightened Def Con from 1.33301e-005 ++++++++++++++++++to 1.33311e-005
Heightened Def Con from 1.33311e-005 ++++++++++++++++++to 1.33321e-005
Heightened Def Con from 1.33321e-005 ++++++++++++++++++to 1.33331e-005
Heightened Def Con from 1.33331e-005 ++++++++++++++++++to 1.33341e-005
Heightened Def Con from 1.33341e-005 ++++++++++++++++++to 1.33351e-005
Heightened Def Con from 1.33351e-005 ++++++++++++++++++to 1.33361e-005
Heightened Def Con from 1.33361e-005 ++++++++++++++++++to 1.33371e-005
Heightened Def Con from 1.33371e-005 ++++++++++++++++++to 1.33381e-005
Heightened Def Con from 1.33381e-005 ++++++++++++++++++to 1.33391e-005
Heightened Def Con from 1.33391e-005 ++++++++++++++++++to 1.33401e-005
Heightened Def Con from 1.33401e-005 ++++++++++++++++++to 1.33411e-005
Heightened Def Con from 1.33411e-005 ++++++++++++++++++to 1.33421e-005
Heightened Def Con from 1.33421e-005 ++++++++++++++++++to 1.33431e-005
Heightened Def Con from 1.33431e-005 ++++++++++++++++++to 1.33441e-005
Heightened Def Con from 1.33441e-005 ++++++++++++++++++to 1.33451e-005
Heightened Def Con from 1.33451e-005 ++++++++++++++++++to 1.33461e-005
Heightened Def Con from 1.33461e-005 ++++++++++++++++++to 1.33471e-005
Heightened Def Con from 1.33471e-005 ++++++++++++++++++to 1.33481e-005
Heightened Def Con from 1.33481e-005 ++++++++++++++++++to 1.33491e-005
Heightened Def Con from 1.33491e-005 ++++++++++++++++++to 1.33501e-005
Heightened Def Con from 1.33501e-005 ++++++++++++++++++to 1.33511e-005
Heightened Def Con from 1.33511e-005 ++++++++++++++++++to 1.33521e-005
Heightened Def Con from 1.33521e-005 ++++++++++++++++++to 1.33531e-005
Heightened Def Con from 1.33531e-005 ++++++++++++++++++to 1.33541e-005
Heightened Def Con from 1.33541e-005 ++++++++++++++++++to 1.33551e-005
Heightened Def Con from 1.33551e-005 ++++++++++++++++++to 1.33561e-005
Heightened Def Con from 1.33561e-005 ++++++++++++++++++to 1.33571e-005
Heightened Def Con from 1.33571e-005 ++++++++++++++++++to 1.33581e-005
Heightened Def Con from 1.33581e-005 ++++++++++++++++++to 1.33591e-005
Heightened Def Con from 1.33591e-005 ++++++++++++++++++to 1.33601e-005
Heightened Def Con from 1.33601e-005 ++++++++++++++++++to 1.33611e-005
Heightened Def Con from 1.33611e-005 ++++++++++++++++++to 1.33621e-005
Heightened Def Con from 1.33621e-005 ++++++++++++++++++to 1.33631e-005
Heightened Def Con from 1.33631e-005 ++++++++++++++++++to 1.33641e-005
Heightened Def Con from 1.33641e-005 ++++++++++++++++++to 1.33651e-005
Heightened Def Con from 1.33651e-005 ++++++++++++++++++to 1.33661e-005
Heightened Def Con from 1.33661e-005 ++++++++++++++++++to 1.33671e-005
Heightened Def Con from 1.33671e-005 ++++++++++++++++++to 1.33681e-005
Heightened Def Con from 1.33681e-005 ++++++++++++++++++to 1.33691e-005
Heightened Def Con from 1.33691e-005 ++++++++++++++++++to 1.33701e-005
Heightened Def Con from 1.33701e-005 ++++++++++++++++++to 1.33711e-005
Heightened Def Con from 1.33711e-005 ++++++++++++++++++to 1.33721e-005
Heightened Def Con from 1.33721e-005 ++++++++++++++++++to 1.33731e-005
Heightened Def Con from 1.33731e-005 ++++++++++++++++++to 1.33741e-005
Heightened Def Con from 1.33741e-005 ++++++++++++++++++to 1.33751e-005
Heightened Def Con from 1.33751e-005 ++++++++++++++++++to 1.33761e-005
Heightened Def Con from 1.33761e-005 ++++++++++++++++++to 1.33771e-005
Heightened Def Con from 1.33771e-005 ++++++++++++++++++to 1.33781e-005
Heightened Def Con from 1.33781e-005 ++++++++++++++++++to 1.33791e-005
Heightened Def Con from 1.33791e-005 ++++++++++++++++++to 1.33801e-005
Heightened Def Con from 1.33801e-005 ++++++++++++++++++to 1.33811e-005
Heightened Def Con from 1.33811e-005 ++++++++++++++++++to 1.33821e-005
Heightened Def Con from 1.33821e-005 ++++++++++++++++++to 1.33831e-005
Heightened Def Con from 1.33831e-005 ++++++++++++++++++to 1.33841e-005
Heightened Def Con from 1.33841e-005 ++++++++++++++++++to 1.33851e-005
Heightened Def Con from 1.33851e-005 ++++++++++++++++++to 1.33861e-005
Heightened Def Con from 1.33861e-005 ++++++++++++++++++to 1.33871e-005
Heightened Def Con from 1.33871e-005 ++++++++++++++++++to 1.33881e-005
Heightened Def Con from 1.33881e-005 ++++++++++++++++++to 1.33891e-005
Heightened Def Con from 1.33891e-005 ++++++++++++++++++to 1.33901e-005
Heightened Def Con from 1.33901e-005 ++++++++++++++++++to 1.33911e-005
Heightened Def Con from 1.33911e-005 ++++++++++++++++++to 1.33921e-005
Heightened Def Con from 1.33921e-005 ++++++++++++++++++to 1.33931e-005
Heightened Def Con from 1.33931e-005 ++++++++++++++++++to 1.33941e-005
Heightened Def Con from 1.33941e-005 ++++++++++++++++++to 1.33951e-005
Heightened Def Con from 1.33951e-005 ++++++++++++++++++to 1.33961e-005
Heightened Def Con from 1.33961e-005 ++++++++++++++++++to 1.33971e-005
Heightened Def Con from 1.33971e-005 ++++++++++++++++++to 1.33981e-005
Heightened Def Con from 1.33981e-005 ++++++++++++++++++to 1.33991e-005
Heightened Def Con from 1.33991e-005 ++++++++++++++++++to 1.34001e-005
Heightened Def Con from 1.34001e-005 ++++++++++++++++++to 1.34011e-005
Heightened Def Con from 1.34011e-005 ++++++++++++++++++to 1.34021e-005
Heightened Def Con from 1.34021e-005 ++++++++++++++++++to 1.34031e-005
Heightened Def Con from 1.34031e-005 ++++++++++++++++++to 1.34041e-005
Heightened Def Con from 1.34041e-005 ++++++++++++++++++to 1.34051e-005
Heightened Def Con from 1.34051e-005 ++++++++++++++++++to 1.34061e-005
Heightened Def Con from 1.34061e-005 ++++++++++++++++++to 1.34071e-005
Heightened Def Con from 1.34071e-005 ++++++++++++++++++to 1.34081e-005
Heightened Def Con from 1.34081e-005 ++++++++++++++++++to 1.34091e-005
Heightened Def Con from 1.34091e-005 ++++++++++++++++++to 1.34101e-005
Heightened Def Con from 1.34101e-005 ++++++++++++++++++to 1.34111e-005
Heightened Def Con from 1.34111e-005 ++++++++++++++++++to 1.34121e-005
Heightened Def Con from 1.34121e-005 ++++++++++++++++++to 1.34131e-005
Heightened Def Con from 1.34131e-005 ++++++++++++++++++to 1.34141e-005
Heightened Def Con from 1.34141e-005 ++++++++++++++++++to 1.34151e-005
Heightened Def Con from 1.34151e-005 ++++++++++++++++++to 1.34161e-005
Heightened Def Con from 1.34161e-005 ++++++++++++++++++to 1.34171e-005
Heightened Def Con from 1.34171e-005 ++++++++++++++++++to 1.34181e-005
Heightened Def Con from 1.34181e-005 ++++++++++++++++++to 1.34191e-005
Heightened Def Con from 1.34191e-005 ++++++++++++++++++to 1.34201e-005
Heightened Def Con from 1.34201e-005 ++++++++++++++++++to 1.34211e-005
Heightened Def Con from 1.34211e-005 ++++++++++++++++++to 1.34221e-005
Heightened Def Con from 1.34221e-005 ++++++++++++++++++to 1.34231e-005
Heightened Def Con from 1.34231e-005 ++++++++++++++++++to 1.34241e-005
Heightened Def Con from 1.34241e-005 ++++++++++++++++++to 1.34251e-005
Heightened Def Con from 1.34251e-005 ++++++++++++++++++to 1.34261e-005
Heightened Def Con from 1.34261e-005 ++++++++++++++++++to 1.34271e-005
Heightened Def Con from 1.34271e-005 ++++++++++++++++++to 1.34281e-005
Heightened Def Con from 1.34281e-005 ++++++++++++++++++to 1.34291e-005
Heightened Def Con from 1.34291e-005 ++++++++++++++++++to 1.34301e-005
Heightened Def Con from 1.34301e-005 ++++++++++++++++++to 1.34311e-005
Heightened Def Con from 1.34311e-005 ++++++++++++++++++to 1.34321e-005
Heightened Def Con from 1.34321e-005 ++++++++++++++++++to 1.34331e-005
Heightened Def Con from 1.34331e-005 ++++++++++++++++++to 1.34341e-005
Heightened Def Con from 1.34341e-005 ++++++++++++++++++to 1.34351e-005
Heightened Def Con from 1.34351e-005 ++++++++++++++++++to 1.34361e-005
Heightened Def Con from 1.34361e-005 ++++++++++++++++++to 1.34371e-005
Heightened Def Con from 1.34371e-005 ++++++++++++++++++to 1.34381e-005
Heightened Def Con from 1.34381e-005 ++++++++++++++++++to 1.34391e-005
Heightened Def Con from 1.34391e-005 ++++++++++++++++++to 1.34401e-005
Heightened Def Con from 1.34401e-005 ++++++++++++++++++to 1.34411e-005
Heightened Def Con from 1.34411e-005 ++++++++++++++++++to 1.34421e-005
Heightened Def Con from 1.34421e-005 ++++++++++++++++++to 1.34431e-005
Heightened Def Con from 1.34431e-005 ++++++++++++++++++to 1.34441e-005
Heightened Def Con from 1.34441e-005 ++++++++++++++++++to 1.34451e-005
Heightened Def Con from 1.34451e-005 ++++++++++++++++++to 1.34461e-005
Heightened Def Con from 1.34461e-005 ++++++++++++++++++to 1.34471e-005
Heightened Def Con from 1.34471e-005 ++++++++++++++++++to 1.34481e-005
Heightened Def Con from 1.34481e-005 ++++++++++++++++++to 1.34491e-005
Heightened Def Con from 1.34491e-005 ++++++++++++++++++to 1.34501e-005
Heightened Def Con from 1.34501e-005 ++++++++++++++++++to 1.34511e-005
Heightened Def Con from 1.34511e-005 ++++++++++++++++++to 1.34521e-005
Heightened Def Con from 1.34521e-005 ++++++++++++++++++to 1.34531e-005
Heightened Def Con from 1.34531e-005 ++++++++++++++++++to 1.34541e-005
Heightened Def Con from 1.34541e-005 ++++++++++++++++++to 1.34551e-005
Heightened Def Con from 1.34551e-005 ++++++++++++++++++to 1.34561e-005
Heightened Def Con from 1.34561e-005 ++++++++++++++++++to 1.34571e-005
Heightened Def Con from 1.34571e-005 ++++++++++++++++++to 1.34581e-005
Heightened Def Con from 1.34581e-005 ++++++++++++++++++to 1.34591e-005
Heightened Def Con from 1.34591e-005 ++++++++++++++++++to 1.34601e-005
Heightened Def Con from 1.34601e-005 ++++++++++++++++++to 1.34611e-005
Heightened Def Con from 1.34611e-005 ++++++++++++++++++to 1.34621e-005
Heightened Def Con from 1.34621e-005 ++++++++++++++++++to 1.34631e-005
Heightened Def Con from 1.34631e-005 ++++++++++++++++++to 1.34641e-005
Heightened Def Con from 1.34641e-005 ++++++++++++++++++to 1.34651e-005
Heightened Def Con from 1.34651e-005 ++++++++++++++++++to 1.34661e-005
Heightened Def Con from 1.34661e-005 ++++++++++++++++++to 1.34671e-005
Heightened Def Con from 1.34671e-005 ++++++++++++++++++to 1.34681e-005
Heightened Def Con from 1.34681e-005 ++++++++++++++++++to 1.34691e-005
Heightened Def Con from 1.34691e-005 ++++++++++++++++++to 1.34701e-005
Heightened Def Con from 1.34701e-005 ++++++++++++++++++to 1.34711e-005
Heightened Def Con from 1.34711e-005 ++++++++++++++++++to 1.34721e-005
Heightened Def Con from 1.34721e-005 ++++++++++++++++++to 1.34731e-005
Heightened Def Con from 1.34731e-005 ++++++++++++++++++to 1.34741e-005
Heightened Def Con from 1.34741e-005 ++++++++++++++++++to 1.34751e-005
Heightened Def Con from 1.34751e-005 ++++++++++++++++++to 1.34761e-005
Heightened Def Con from 1.34761e-005 ++++++to 1.34761e-005

Date: Fri Jun 12 20:47:21 2020
Total elapsed time: 29.888 seconds.

tnom = 27
temp = 27
method = modified trap
totiter = 3196556
traniter = 3194684
tranpoints = 292016
accept = 28239
rejected = 289996
matrix size = 45
fillins = 62
solver = Normal
Thread vector: 5.5/3.4[2] 2.9/2.8[1] 0.9/3.2[1] 0.3/1.2[1]  2592/500
Matrix Compiler1: 10.60 KB object code size  1.7/0.9/[0.6]
Matrix Compiler2: 6.42 KB object code size  0.7/0.8/[0.4]

